@<TRIPOS>MOLECULE
lig_1oi9
46 49 0 0 0
SMALL
GASTEIGER

@<TRIPOS>ATOM
      1 H001        2.5333   39.7162   49.5076 H       1  UNL         0.2931
      2 O002        2.6830   40.0228   48.6217 O.3     1  UNL        -0.5080
      3 C003        3.8917   40.6368   48.5940 C.ar    1  UNL         0.1152
      4 C004        4.4898   40.9991   49.8105 C.ar    1  UNL        -0.0182
      5 H005        4.0133   40.7752   50.7499 H       1  UNL         0.0663
      6 C006        5.7116   41.6925   49.8005 C.ar    1  UNL        -0.0349
      7 H007        6.1436   41.9844   50.7440 H       1  UNL         0.0646
      8 C008        6.3240   42.0432   48.5760 C.ar    1  UNL         0.0411
      9 N009        7.4829   42.8262   48.5732 N.pl3   1  UNL        -0.3240
     10 H010        8.2101   42.4995   47.9396 H       1  UNL         0.1697
     11 C011        7.8814   43.8417   49.4039 C.ar    1  UNL         0.2321
     12 N012        6.9135   44.4329   50.1060 N.ar    1  UNL        -0.1750
     13 C013        7.2167   45.3365   51.0629 C.ar    1  UNL         0.2468
     14 O014        6.2208   45.8634   51.8525 O.3     1  UNL        -0.4757
     15 C015        4.8839   45.5742   51.4718 C.3     1  UNL         0.0928
     16 H016        4.7382   44.5282   51.1863 H       1  UNL         0.0709
     17 H017        4.6577   46.1637   50.5833 H       1  UNL         0.0709
     18 C018        3.8950   45.8565   52.6087 C.3     1  UNL        -0.0070
     19 H019        4.1040   46.8386   53.0348 H       1  UNL         0.0338
     20 C020        2.4697   45.8904   52.0385 C.3     1  UNL        -0.0472
     21 H021        2.2643   44.9535   51.5128 H       1  UNL         0.0271
     22 H022        2.3810   46.6874   51.3020 H       1  UNL         0.0271
     23 C023        1.4063   46.0972   53.1265 C.3     1  UNL        -0.0529
     24 H024        0.4077   46.0717   52.6739 H       1  UNL         0.0267
     25 H025        1.5265   47.0843   53.5760 H       1  UNL         0.0267
     26 C026        1.5208   45.0240   54.2183 C.3     1  UNL        -0.0533
     27 H027        1.2872   44.0427   53.8058 H       1  UNL         0.0267
     28 H028        0.7851   45.2074   55.0045 H       1  UNL         0.0267
     29 C029        2.9302   45.0058   54.8251 C.3     1  UNL        -0.0529
     30 H030        3.0065   44.2162   55.5780 H       1  UNL         0.0267
     31 H031        3.1181   45.9441   55.3419 H       1  UNL         0.0267
     32 C032        4.0028   44.8012   53.7385 C.3     1  UNL        -0.0472
     33 H033        4.9974   44.8291   54.1910 H       1  UNL         0.0271
     34 H034        3.8939   43.7981   53.3226 H       1  UNL         0.0271
     35 C035        8.5736   45.6583   51.2551 C.ar    1  UNL         0.1696
     36 N036        9.2353   46.5199   52.1231 N.ar    1  UNL        -0.2294
     37 C037       10.5007   46.2986   51.7823 C.ar    1  UNL         0.0946
     38 H038       11.3298   46.8267   52.2159 H       1  UNL         0.1042
     39 N039       10.7103   45.4142   50.8028 N.ar    1  UNL        -0.3290
     40 H040       11.6317   45.2084   50.3933 H       1  UNL         0.1691
     41 C041        9.4831   44.9636   50.4102 C.ar    1  UNL         0.1663
     42 N042        9.1964   44.0521   49.4421 N.ar    1  UNL        -0.1927
     43 C043        5.7494   41.6146   47.3639 C.ar    1  UNL        -0.0349
     44 H044        6.2236   41.8601   46.4236 H       1  UNL         0.0646
     45 C045        4.5371   40.9039   47.3704 C.ar    1  UNL        -0.0182
     46 H046        4.0859   40.5989   46.4408 H       1  UNL         0.0663
@<TRIPOS>BOND
    1     1     2  1
    2     2     3  1
    3     3    45 ar
    4     3     4 ar
    5     4     5  1
    6     4     6 ar
    7     6     7  1
    8     6     8 ar
    9     8     9  1
   10     8    43 ar
   11     9    10  1
   12     9    11  1
   13    11    42 ar
   14    11    12 ar
   15    12    13 ar
   16    13    14  1
   17    13    35 ar
   18    14    15  1
   19    15    16  1
   20    15    17  1
   21    15    18  1
   22    18    32  1
   23    18    19  1
   24    18    20  1
   25    20    21  1
   26    20    22  1
   27    20    23  1
   28    23    24  1
   29    23    25  1
   30    23    26  1
   31    26    27  1
   32    26    28  1
   33    26    29  1
   34    29    30  1
   35    29    31  1
   36    29    32  1
   37    32    33  1
   38    32    34  1
   39    35    41 ar
   40    35    36 ar
   41    36    37 ar
   42    37    38  1
   43    37    39 ar
   44    39    40  1
   45    39    41 ar
   46    41    42 ar
   47    43    44  1
   48    43    45 ar
   49    45    46  1

