@<TRIPOS>MOLECULE
lig_1oiu
50 53 0 0 0
SMALL
GASTEIGER

@<TRIPOS>ATOM
      1 H001       11.3150   46.8573   52.2198 H       1  UNL         0.1042
      2 C002       10.4943   46.3130   51.7756 C.ar    1  UNL         0.0946
      3 N003        9.2259   46.5247   52.1147 N.ar    1  UNL        -0.2294
      4 C004        8.5748   45.6545   51.2494 C.ar    1  UNL         0.1696
      5 C005        7.2198   45.3302   51.0583 C.ar    1  UNL         0.2468
      6 O006        6.2200   45.8692   51.8358 O.3     1  UNL        -0.4757
      7 C007        4.8812   45.5417   51.4734 C.3     1  UNL         0.0928
      8 H008        4.7464   44.4867   51.2196 H       1  UNL         0.0709
      9 H009        4.6396   46.1121   50.5741 H       1  UNL         0.0709
     10 C010        3.8908   45.8433   52.6076 C.3     1  UNL        -0.0070
     11 H011        4.1007   46.8322   53.0183 H       1  UNL         0.0338
     12 C012        2.4627   45.8636   52.0308 C.3     1  UNL        -0.0472
     13 H013        2.2702   44.9235   51.5126 H       1  UNL         0.0271
     14 H014        2.3780   46.6557   51.2858 H       1  UNL         0.0271
     15 C015        1.4046   46.0720   53.1190 C.3     1  UNL        -0.0529
     16 H016        0.4111   46.0477   52.6724 H       1  UNL         0.0267
     17 H017        1.5262   47.0612   53.5601 H       1  UNL         0.0267
     18 C018        1.5196   45.0061   54.2175 C.3     1  UNL        -0.0533
     19 H019        1.2882   44.0226   53.8047 H       1  UNL         0.0267
     20 H020        0.7812   45.1987   54.9961 H       1  UNL         0.0267
     21 C021        2.9310   44.9959   54.8248 C.3     1  UNL        -0.0529
     22 H022        3.0054   44.2058   55.5740 H       1  UNL         0.0267
     23 H023        3.1118   45.9347   55.3497 H       1  UNL         0.0267
     24 C024        4.0028   44.7944   53.7404 C.3     1  UNL        -0.0472
     25 H025        4.9941   44.8281   54.1957 H       1  UNL         0.0271
     26 H026        3.8947   43.7916   53.3263 H       1  UNL         0.0271
     27 N027        6.9126   44.4246   50.1034 N.ar    1  UNL        -0.1750
     28 C028        7.8736   43.8237   49.3983 C.ar    1  UNL         0.2321
     29 N029        7.4607   42.8069   48.5761 N.pl3   1  UNL        -0.3240
     30 H030        8.1741   42.4642   47.9445 H       1  UNL         0.1697
     31 C031        6.2960   42.0260   48.5815 C.ar    1  UNL         0.0422
     32 C032        5.7319   41.5792   47.3698 C.ar    1  UNL        -0.0184
     33 H033        6.2038   41.8195   46.4280 H       1  UNL         0.0659
     34 C034        4.5340   40.8334   47.3951 C.ar    1  UNL         0.0838
     35 S035        3.7788   40.2936   45.8731 S.3     1  UNL         0.2376
     36 O036        2.4680   40.9508   45.7557 O.2     1  UNL        -0.2073
     37 O037        4.7768   40.3709   44.7966 O.2     1  UNL        -0.2073
     38 N038        3.4836   38.6320   46.1787 N.3     1  UNL        -0.2246
     39 H039        2.9245   38.2378   45.4266 H       1  UNL         0.1370
     40 H040        4.3849   38.1386   46.2239 H       1  UNL         0.1370
     41 C041        3.9012   40.5161   48.6124 C.ar    1  UNL        -0.0420
     42 H042        2.9856   39.9470   48.6221 H       1  UNL         0.0637
     43 C043        4.4851   40.9285   49.8222 C.ar    1  UNL        -0.0589
     44 H044        4.0229   40.6852   50.7688 H       1  UNL         0.0624
     45 C045        5.6837   41.6643   49.8026 C.ar    1  UNL        -0.0384
     46 H046        6.1276   41.9667   50.7378 H       1  UNL         0.0645
     47 N047        9.1901   44.0328   49.4435 N.ar    1  UNL        -0.1927
     48 C048        9.4849   44.9518   50.4087 C.ar    1  UNL         0.1663
     49 N049       10.7113   45.4115   50.8077 N.ar    1  UNL        -0.3290
     50 H050       11.6282   45.2022   50.4055 H       1  UNL         0.1691
@<TRIPOS>BOND
    1     1     2  1
    2     2    49 ar
    3     2     3 ar
    4     3     4 ar
    5     4    48 ar
    6     4     5 ar
    7     5     6  1
    8     5    27 ar
    9     6     7  1
   10     7     8  1
   11     7     9  1
   12     7    10  1
   13    10    24  1
   14    10    11  1
   15    10    12  1
   16    12    13  1
   17    12    14  1
   18    12    15  1
   19    15    16  1
   20    15    17  1
   21    15    18  1
   22    18    19  1
   23    18    20  1
   24    18    21  1
   25    21    22  1
   26    21    23  1
   27    21    24  1
   28    24    25  1
   29    24    26  1
   30    27    28 ar
   31    28    29  1
   32    28    47 ar
   33    29    30  1
   34    29    31  1
   35    31    45 ar
   36    31    32 ar
   37    32    33  1
   38    32    34 ar
   39    34    35  1
   40    34    41 ar
   41    35    36  2
   42    35    37  2
   43    35    38  1
   44    38    39  1
   45    38    40  1
   46    41    42  1
   47    41    43 ar
   48    43    44  1
   49    43    45 ar
   50    45    46  1
   51    47    48 ar
   52    48    49 ar
   53    49    50  1

