@<TRIPOS>MOLECULE
lig_1h1q
45 48 0 0 0
SMALL
GASTEIGER

@<TRIPOS>ATOM
      1 H001       11.3228   46.8638   52.2217 H       1  UNL         0.1042
      2 C002       10.5071   46.3141   51.7805 C.ar    1  UNL         0.0946
      3 N003        9.2428   46.5197   52.1267 N.ar    1  UNL        -0.2294
      4 C004        8.5848   45.6406   51.2776 C.ar    1  UNL         0.1696
      5 C005        7.2232   45.3203   51.0908 C.ar    1  UNL         0.2468
      6 O006        6.2169   45.8724   51.8521 O.3     1  UNL        -0.4757
      7 C007        4.8752   45.5385   51.4903 C.3     1  UNL         0.0928
      8 H008        4.7444   44.4838   51.2354 H       1  UNL         0.0709
      9 H009        4.6305   46.1185   50.5995 H       1  UNL         0.0709
     10 C010        3.8893   45.8494   52.6257 C.3     1  UNL        -0.0070
     11 H011        4.1125   46.8329   53.0389 H       1  UNL         0.0338
     12 C012        2.4618   45.8853   52.0487 C.3     1  UNL        -0.0472
     13 H013        2.2580   44.9560   51.5162 H       1  UNL         0.0271
     14 H014        2.3786   46.6842   51.3097 H       1  UNL         0.0271
     15 C015        1.4017   46.0882   53.1378 C.3     1  UNL        -0.0529
     16 H016        0.4045   46.0773   52.6953 H       1  UNL         0.0267
     17 H017        1.5317   47.0703   53.5877 H       1  UNL         0.0267
     18 C018        1.5085   45.0111   54.2264 C.3     1  UNL        -0.0533
     19 H019        1.2776   44.0327   53.8037 H       1  UNL         0.0267
     20 H020        0.7651   45.1976   55.0029 H       1  UNL         0.0267
     21 C021        2.9176   44.9939   54.8382 C.3     1  UNL        -0.0529
     22 H022        2.9898   44.1960   55.5784 H       1  UNL         0.0267
     23 H023        3.0962   45.9261   55.3761 H       1  UNL         0.0267
     24 C024        3.9927   44.7960   53.7552 C.3     1  UNL        -0.0472
     25 H025        4.9829   44.8273   54.2114 H       1  UNL         0.0271
     26 H026        3.8865   43.7935   53.3419 H       1  UNL         0.0271
     27 N027        6.9183   44.4224   50.1284 N.ar    1  UNL        -0.1750
     28 C028        7.8772   43.8234   49.4216 C.ar    1  UNL         0.2321
     29 N029        7.4562   42.8095   48.6000 N.pl3   1  UNL        -0.3240
     30 H030        8.1630   42.4808   47.9519 H       1  UNL         0.1697
     31 C031        6.2827   42.0369   48.5944 C.ar    1  UNL         0.0409
     32 C032        5.7488   41.5783   47.3728 C.ar    1  UNL        -0.0385
     33 H033        6.2483   41.8153   46.4455 H       1  UNL         0.0645
     34 C034        4.5599   40.8222   47.3535 C.ar    1  UNL        -0.0602
     35 H035        4.1574   40.4812   46.4094 H       1  UNL         0.0623
     36 C036        3.8958   40.5238   48.5590 C.ar    1  UNL        -0.0621
     37 H037        2.9882   39.9383   48.5444 H       1  UNL         0.0623
     38 C038        4.4313   40.9575   49.7844 C.ar    1  UNL        -0.0602
     39 H039        3.9293   40.7189   50.7110 H       1  UNL         0.0623
     40 C040        5.6276   41.6968   49.7998 C.ar    1  UNL        -0.0385
     41 H041        6.0349   42.0094   50.7503 H       1  UNL         0.0645
     42 N042        9.1940   44.0262   49.4645 N.ar    1  UNL        -0.1927
     43 C043        9.4934   44.9419   50.4311 C.ar    1  UNL         0.1663
     44 N044       10.7207   45.4214   50.8051 N.ar    1  UNL        -0.3290
     45 H045       11.6359   45.2232   50.3892 H       1  UNL         0.1691
@<TRIPOS>BOND
    1     1     2  1
    2     2    44 ar
    3     2     3 ar
    4     3     4 ar
    5     4    43 ar
    6     4     5 ar
    7     5     6  1
    8     5    27 ar
    9     6     7  1
   10     7     8  1
   11     7     9  1
   12     7    10  1
   13    10    24  1
   14    10    11  1
   15    10    12  1
   16    12    13  1
   17    12    14  1
   18    12    15  1
   19    15    16  1
   20    15    17  1
   21    15    18  1
   22    18    19  1
   23    18    20  1
   24    18    21  1
   25    21    22  1
   26    21    23  1
   27    21    24  1
   28    24    25  1
   29    24    26  1
   30    27    28 ar
   31    28    29  1
   32    28    42 ar
   33    29    30  1
   34    29    31  1
   35    31    40 ar
   36    31    32 ar
   37    32    33  1
   38    32    34 ar
   39    34    35  1
   40    34    36 ar
   41    36    37  1
   42    36    38 ar
   43    38    39  1
   44    38    40 ar
   45    40    41  1
   46    42    43 ar
   47    43    44 ar
   48    44    45  1

