@<TRIPOS>MOLECULE
lig_17
45 48 0 0 0
SMALL
GASTEIGER

@<TRIPOS>ATOM
      1 H001       11.3246   46.8972   52.2212 H       1  UNL         0.1042
      2 C002       10.5122   46.3274   51.7890 C.ar    1  UNL         0.0946
      3 N003        9.2422   46.5332   52.1263 N.ar    1  UNL        -0.2294
      4 C004        8.5848   45.6591   51.2688 C.ar    1  UNL         0.1696
      5 C005        7.2251   45.3365   51.0686 C.ar    1  UNL         0.2468
      6 O006        6.2163   45.8745   51.8394 O.3     1  UNL        -0.4757
      7 C007        4.8772   45.5634   51.4630 C.3     1  UNL         0.0928
      8 H008        4.7349   44.5155   51.1894 H       1  UNL         0.0709
      9 H009        4.6548   46.1538   50.5721 H       1  UNL         0.0709
     10 C010        3.8887   45.8624   52.6008 C.3     1  UNL        -0.0070
     11 H011        4.1014   46.8450   53.0254 H       1  UNL         0.0338
     12 C012        2.4595   45.8950   52.0258 C.3     1  UNL        -0.0472
     13 H013        2.2576   44.9565   51.5074 H       1  UNL         0.0271
     14 H014        2.3735   46.6887   51.2822 H       1  UNL         0.0271
     15 C015        1.3995   46.1047   53.1113 C.3     1  UNL        -0.0529
     16 H016        0.4059   46.0922   52.6606 H       1  UNL         0.0267
     17 H017        1.5303   47.0919   53.5550 H       1  UNL         0.0267
     18 C018        1.5067   45.0271   54.2014 C.3     1  UNL        -0.0533
     19 H019        1.2758   44.0472   53.7794 H       1  UNL         0.0267
     20 H020        0.7665   45.2154   54.9798 H       1  UNL         0.0267
     21 C021        2.9173   45.0041   54.8119 C.3     1  UNL        -0.0529
     22 H022        2.9893   44.2064   55.5539 H       1  UNL         0.0267
     23 H023        3.0983   45.9386   55.3454 H       1  UNL         0.0267
     24 C024        3.9920   44.8055   53.7294 C.3     1  UNL        -0.0472
     25 H025        4.9814   44.8283   54.1888 H       1  UNL         0.0271
     26 H026        3.8828   43.8025   53.3143 H       1  UNL         0.0271
     27 N027        6.9199   44.4277   50.1165 N.ar    1  UNL        -0.1750
     28 C028        7.8849   43.8255   49.4204 C.ar    1  UNL         0.2321
     29 N029        7.4764   42.7951   48.6144 N.pl3   1  UNL        -0.3240
     30 H030        8.1910   42.4498   47.9807 H       1  UNL         0.1697
     31 C031        6.3039   42.0250   48.6096 C.ar    1  UNL         0.0420
     32 C032        5.6621   41.6826   49.8208 C.ar    1  UNL        -0.0384
     33 H033        6.0787   41.9930   50.7659 H       1  UNL         0.0645
     34 C034        4.4628   40.9483   49.8177 C.ar    1  UNL        -0.0591
     35 H035        3.9647   40.7190   50.7502 H       1  UNL         0.0624
     36 C036        3.9153   40.5177   48.5966 C.ar    1  UNL        -0.0478
     37 H037        3.0046   39.9408   48.6052 H       1  UNL         0.0635
     38 C038        4.5649   40.8262   47.3835 C.ar    1  UNL         0.0195
     39 Br039       3.8038   40.2739   45.7292 Br      1  UNL        -0.0508
     40 C040        5.7615   41.5738   47.3904 C.ar    1  UNL        -0.0243
     41 H041        6.2501   41.8137   46.4588 H       1  UNL         0.0657
     42 N042        9.2020   44.0251   49.4782 N.ar    1  UNL        -0.1927
     43 C043        9.4983   44.9498   50.4373 C.ar    1  UNL         0.1663
     44 N044       10.7271   45.4201   50.8263 N.ar    1  UNL        -0.3290
     45 H045       11.6385   45.2084   50.4116 H       1  UNL         0.1691
@<TRIPOS>BOND
    1     1     2  1
    2     2    44 ar
    3     2     3 ar
    4     3     4 ar
    5     4    43 ar
    6     4     5 ar
    7     5     6  1
    8     5    27 ar
    9     6     7  1
   10     7     8  1
   11     7     9  1
   12     7    10  1
   13    10    24  1
   14    10    11  1
   15    10    12  1
   16    12    13  1
   17    12    14  1
   18    12    15  1
   19    15    16  1
   20    15    17  1
   21    15    18  1
   22    18    19  1
   23    18    20  1
   24    18    21  1
   25    21    22  1
   26    21    23  1
   27    21    24  1
   28    24    25  1
   29    24    26  1
   30    27    28 ar
   31    28    29  1
   32    28    42 ar
   33    29    30  1
   34    29    31  1
   35    31    40 ar
   36    31    32 ar
   37    32    33  1
   38    32    34 ar
   39    34    35  1
   40    34    36 ar
   41    36    37  1
   42    36    38 ar
   43    38    39  1
   44    38    40 ar
   45    40    41  1
   46    42    43 ar
   47    43    44 ar
   48    44    45  1

