@<TRIPOS>MOLECULE
lig_CHEMBL3402761_1_21
63 67 0 0 0
SMALL
GASTEIGER

@<TRIPOS>ATOM
      1 H001      -16.4763   25.1710  101.7327 H       1  UNL         0.0682
      2 C002      -16.9889   25.1218  100.7848 C.ar    1  UNL         0.0072
      3 C003      -18.0563   25.9207  100.5732 C.ar    1  UNL        -0.0285
      4 H004      -18.3795   26.5913  101.3519 H       1  UNL         0.0648
      5 C005      -18.7820   25.8333   99.3132 C.ar    1  UNL         0.0911
      6 C006      -19.9574   26.6853   98.9974 C.ar    1  UNL         0.0032
      7 C007      -20.1532   27.8891   99.7054 C.ar    1  UNL        -0.0527
      8 H008      -19.4386   28.2308  100.4355 H       1  UNL         0.0630
      9 C009      -21.2683   28.7006   99.4275 C.ar    1  UNL        -0.0603
     10 H010      -21.4137   29.6240   99.9696 H       1  UNL         0.0623
     11 C011      -22.1869   28.3149   98.4346 C.ar    1  UNL        -0.0443
     12 H012      -23.0357   28.9492   98.2246 H       1  UNL         0.0637
     13 C013      -21.9932   27.1160   97.7196 C.ar    1  UNL         0.0527
     14 C014      -22.9373   26.7461   96.6814 C.1     1  UNL         0.0991
     15 N015      -23.6869   26.4552   95.8498 N.1     1  UNL        -0.1924
     16 C016      -20.8817   26.2915   98.0018 C.ar    1  UNL        -0.0349
     17 H017      -20.7440   25.3660   97.4636 H       1  UNL         0.0644
     18 N018      -18.3809   24.9892   98.4171 N.ar    1  UNL        -0.1694
     19 N019      -17.2633   24.1968   98.6256 N.ar    1  UNL        -0.2250
     20 C020      -16.9305   23.3281   97.4933 C.3     1  UNL         0.0700
     21 H021      -17.2214   23.8090   96.5577 H       1  UNL         0.0568
     22 H022      -15.8530   23.1788   97.4111 H       1  UNL         0.0568
     23 C023      -17.6294   21.9886   97.5990 C.ar    1  UNL        -0.0256
     24 C024      -16.9558   20.9308   98.2359 C.ar    1  UNL        -0.0571
     25 H025      -15.9567   21.0756   98.6216 H       1  UNL         0.0626
     26 C026      -17.5737   19.6804   98.3670 C.ar    1  UNL        -0.0612
     27 H027      -17.0513   18.8622   98.8414 H       1  UNL         0.0623
     28 C028      -18.8754   19.4912   97.8803 C.ar    1  UNL        -0.0512
     29 H029      -19.3175   18.5105   97.9875 H       1  UNL         0.0630
     30 C030      -19.5762   20.5410   97.2466 C.ar    1  UNL         0.0195
     31 C031      -20.9083   20.1777   96.7240 C.ar    1  UNL         0.1589
     32 N032      -21.6242   19.1593   97.2351 N.ar    1  UNL        -0.2327
     33 C033      -22.9332   19.0625   96.8828 C.ar    1  UNL         0.0730
     34 H034      -23.4752   18.2111   97.2604 H       1  UNL         0.0882
     35 C035      -23.5481   20.0307   96.0720 C.ar    1  UNL         0.1555
     36 O036      -24.8511   20.1014   95.6454 O.3     1  UNL        -0.4890
     37 C037      -25.8856   19.4508   96.3462 C.3     1  UNL         0.1010
     38 H038      -26.6602   19.2361   95.6105 H       1  UNL         0.0719
     39 H039      -25.5839   18.4814   96.7427 H       1  UNL         0.0719
     40 C040      -26.5202   20.3085   97.4506 C.3     1  UNL         0.0327
     41 H041      -27.4590   19.7959   97.6343 H       1  UNL         0.0466
     42 H042      -25.9207   20.2451   98.3594 H       1  UNL         0.0466
     43 N043      -26.8638   21.7074   97.1770 N.3     1  UNL        -0.2954
     44 C044      -25.6886   22.5794   97.1238 C.3     1  UNL         0.0219
     45 H045      -25.0623   22.4219   98.0014 H       1  UNL         0.0455
     46 H046      -25.0750   22.3396   96.2589 H       1  UNL         0.0455
     47 C047      -26.0525   24.0706   97.0200 C.3     1  UNL         0.0594
     48 H048      -26.5101   24.2937   96.0549 H       1  UNL         0.0580
     49 H049      -25.1506   24.6733   97.0975 H       1  UNL         0.0580
     50 O050      -26.9321   24.4428   98.0740 O.3     1  UNL        -0.3788
     51 C051      -28.1272   23.6733   98.0695 C.3     1  UNL         0.0594
     52 H052      -28.6826   23.8444   97.1462 H       1  UNL         0.0580
     53 H053      -28.7627   23.9993   98.8924 H       1  UNL         0.0580
     54 C054      -27.7662   22.1889   98.2265 C.3     1  UNL         0.0219
     55 H055      -28.6843   21.5996   98.2226 H       1  UNL         0.0455
     56 H056      -27.3157   22.0382   99.2089 H       1  UNL         0.0455
     57 C057      -22.6618   20.9722   95.5679 C.ar    1  UNL         0.0730
     58 H058      -22.9896   21.6925   94.8379 H       1  UNL         0.0882
     59 N059      -21.3359   20.9425   95.7598 N.ar    1  UNL        -0.2327
     60 C060      -18.9425   21.8003   97.1022 C.ar    1  UNL        -0.0461
     61 H061      -19.4595   22.6151   96.6155 H       1  UNL         0.0634
     62 C062      -16.5108   24.1937   99.7655 C.ar    1  UNL         0.2666
     63 O063      -15.5173   23.4809   99.9180 O.2     1  UNL        -0.2678
@<TRIPOS>BOND
    1     1     2  1
    2     2    62 ar
    3     2     3 ar
    4     3     4  1
    5     3     5 ar
    6     5     6  1
    7     5    18 ar
    8     6    16 ar
    9     6     7 ar
   10     7     8  1
   11     7     9 ar
   12     9    10  1
   13     9    11 ar
   14    11    12  1
   15    11    13 ar
   16    13    14  1
   17    13    16 ar
   18    14    15  3
   19    16    17  1
   20    18    19 ar
   21    19    20  1
   22    19    62 ar
   23    20    21  1
   24    20    22  1
   25    20    23  1
   26    23    60 ar
   27    23    24 ar
   28    24    25  1
   29    24    26 ar
   30    26    27  1
   31    26    28 ar
   32    28    29  1
   33    28    30 ar
   34    30    31  1
   35    30    60 ar
   36    31    59 ar
   37    31    32 ar
   38    32    33 ar
   39    33    34  1
   40    33    35 ar
   41    35    36  1
   42    35    57 ar
   43    36    37  1
   44    37    38  1
   45    37    39  1
   46    37    40  1
   47    40    41  1
   48    40    42  1
   49    40    43  1
   50    43    54  1
   51    43    44  1
   52    44    45  1
   53    44    46  1
   54    44    47  1
   55    47    48  1
   56    47    49  1
   57    47    50  1
   58    50    51  1
   59    51    52  1
   60    51    53  1
   61    51    54  1
   62    54    55  1
   63    54    56  1
   64    57    58  1
   65    57    59 ar
   66    60    61  1
   67    62    63  2

