@<TRIPOS>MOLECULE
lig_CHEMBL3402749_500_9
43 46 0 0 0
SMALL
GASTEIGER

@<TRIPOS>ATOM
      1 H001      -23.2641   21.0026   94.8353 H       1  UNL         0.0878
      2 C002      -22.6855   20.6866   95.6747 C.ar    1  UNL         0.0691
      3 C003      -23.0708   20.0871   96.8265 C.ar    1  UNL         0.1214
      4 C004      -24.4329   19.6523   97.2352 C.3     1  UNL        -0.0045
      5 H005      -25.1261   19.7141   96.3953 H       1  UNL         0.0313
      6 H006      -24.8219   20.2871   98.0335 H       1  UNL         0.0313
      7 H007      -24.4323   18.6182   97.5810 H       1  UNL         0.0313
      8 O008      -21.9609   19.9258   97.6347 O.2     1  UNL        -0.4415
      9 C009      -20.9377   20.3933   96.8500 C.ar    1  UNL         0.2257
     10 C010      -19.5872   20.5663   97.3257 C.ar    1  UNL         0.0374
     11 C011      -18.9315   19.4736   97.9119 C.ar    1  UNL        -0.0495
     12 H012      -19.4357   18.5215   98.0017 H       1  UNL         0.0631
     13 C013      -17.6128   19.6043   98.3841 C.ar    1  UNL        -0.0611
     14 H014      -17.1150   18.7576   98.8333 H       1  UNL         0.0623
     15 C015      -16.9465   20.8390   98.2739 C.ar    1  UNL        -0.0571
     16 H016      -15.9386   20.9414   98.6484 H       1  UNL         0.0626
     17 C017      -17.5935   21.9391   97.6749 C.ar    1  UNL        -0.0256
     18 C018      -16.8772   23.2724   97.5707 C.3     1  UNL         0.0700
     19 H019      -15.7973   23.1110   97.5385 H       1  UNL         0.0568
     20 H020      -17.1182   23.7286   96.6092 H       1  UNL         0.0568
     21 N021      -17.2497   24.1794   98.6580 N.ar    1  UNL        -0.2250
     22 N022      -18.3569   24.9553   98.3804 N.ar    1  UNL        -0.1693
     23 C023      -18.8065   25.8276   99.2249 C.ar    1  UNL         0.0913
     24 C024      -19.9847   26.6385   98.8064 C.ar    1  UNL         0.0077
     25 C025      -20.4211   27.7314   99.5906 C.ar    1  UNL        -0.0166
     26 H026      -19.9143   28.0243  100.4908 H       1  UNL         0.0661
     27 C027      -21.5246   28.4995   99.1707 C.ar    1  UNL         0.1263
     28 F028      -21.9273   29.5624   99.9079 F       1  UNL        -0.2069
     29 C029      -22.1990   28.1753   97.9784 C.ar    1  UNL         0.0096
     30 H030      -23.0453   28.7663   97.6623 H       1  UNL         0.0685
     31 C031      -21.7666   27.0883   97.1957 C.ar    1  UNL         0.1263
     32 F032      -22.4036   26.7832   96.0395 F       1  UNL        -0.2069
     33 C033      -20.6611   26.3209   97.6039 C.ar    1  UNL        -0.0166
     34 H034      -20.3474   25.4997   96.9783 H       1  UNL         0.0661
     35 C035      -18.1292   25.9701  100.5057 C.ar    1  UNL        -0.0284
     36 H036      -18.4728   26.6834  101.2352 H       1  UNL         0.0648
     37 C037      -17.0561   25.1934  100.7829 C.ar    1  UNL         0.0072
     38 H038      -16.5575   25.3005  101.7350 H       1  UNL         0.0682
     39 C039      -16.5437   24.2175   99.8231 C.ar    1  UNL         0.2666
     40 O040      -15.5659   23.4983  100.0350 O.2     1  UNL        -0.2678
     41 C041      -18.9174   21.8012   97.2014 C.ar    1  UNL        -0.0445
     42 H042      -19.4208   22.6430   96.7493 H       1  UNL         0.0635
     43 N043      -21.3148   20.6869   95.6352 N.ar    1  UNL        -0.2177
@<TRIPOS>BOND
    1     1     2  1
    2     2    43 ar
    3     2     3 ar
    4     3     4  1
    5     3     8 ar
    6     4     5  1
    7     4     6  1
    8     4     7  1
    9     8     9 ar
   10     9    10  1
   11     9    43 ar
   12    10    41 ar
   13    10    11 ar
   14    11    12  1
   15    11    13 ar
   16    13    14  1
   17    13    15 ar
   18    15    16  1
   19    15    17 ar
   20    17    18  1
   21    17    41 ar
   22    18    19  1
   23    18    20  1
   24    18    21  1
   25    21    39 ar
   26    21    22 ar
   27    22    23 ar
   28    23    24  1
   29    23    35 ar
   30    24    33 ar
   31    24    25 ar
   32    25    26  1
   33    25    27 ar
   34    27    28  1
   35    27    29 ar
   36    29    30  1
   37    29    31 ar
   38    31    32  1
   39    31    33 ar
   40    33    34  1
   41    35    36  1
   42    35    37 ar
   43    37    38  1
   44    37    39 ar
   45    39    40  2
   46    41    42  1

