@<TRIPOS>MOLECULE
lig_CHEMBL3402745_200_5
45 47 0 0 0
SMALL
GASTEIGER

@<TRIPOS>ATOM
      1 H001      -16.4451   25.1824  101.7853 H       1  UNL         0.0682
      2 C002      -16.9413   25.0957  100.8308 C.ar    1  UNL         0.0072
      3 C003      -18.0084   25.8822  100.5657 C.ar    1  UNL        -0.0284
      4 H004      -18.3563   26.5785  101.3107 H       1  UNL         0.0648
      5 C005      -18.6938   25.7471   99.2887 C.ar    1  UNL         0.0913
      6 C006      -19.8771   26.5568   98.9015 C.ar    1  UNL         0.0077
      7 C007      -20.2122   27.7200   99.6284 C.ar    1  UNL        -0.0166
      8 H008      -19.6000   28.0769  100.4389 H       1  UNL         0.0661
      9 C009      -21.3405   28.4760   99.2566 C.ar    1  UNL         0.1263
     10 F010      -21.6474   29.6057   99.9368 F       1  UNL        -0.2069
     11 C011      -22.1337   28.0706   98.1643 C.ar    1  UNL         0.0096
     12 H012      -22.9963   28.6537   97.8826 H       1  UNL         0.0685
     13 C013      -21.7983   26.9124   97.4350 C.ar    1  UNL         0.1263
     14 F014      -22.5527   26.5264   96.3793 F       1  UNL        -0.2069
     15 C015      -20.6745   26.1514   97.8039 C.ar    1  UNL        -0.0166
     16 H016      -20.4389   25.2631   97.2373 H       1  UNL         0.0661
     17 N017      -18.2581   24.8789   98.4341 N.ar    1  UNL        -0.1693
     18 N018      -17.1542   24.0930   98.7002 N.ar    1  UNL        -0.2250
     19 C019      -16.7942   23.1844   97.6086 C.3     1  UNL         0.0700
     20 H020      -15.7232   22.9763   97.5941 H       1  UNL         0.0568
     21 H021      -16.9919   23.6712   96.6509 H       1  UNL         0.0568
     22 C022      -17.5707   21.8816   97.6617 C.ar    1  UNL        -0.0243
     23 C023      -16.9862   20.7291   98.2210 C.ar    1  UNL        -0.0570
     24 H024      -15.9785   20.7652   98.6101 H       1  UNL         0.0626
     25 C025      -17.7172   19.5287   98.2826 C.ar    1  UNL        -0.0599
     26 H026      -17.2731   18.6421   98.7082 H       1  UNL         0.0624
     27 C027      -19.0343   19.4807   97.7899 C.ar    1  UNL        -0.0384
     28 H028      -19.5613   18.5448   97.8710 H       1  UNL         0.0645
     29 C029      -19.6345   20.6338   97.2324 C.ar    1  UNL         0.0443
     30 N030      -20.9753   20.6867   96.7663 N.am    1  UNL        -0.2913
     31 H031      -21.3412   21.6063   96.5377 H       1  UNL         0.1731
     32 C032      -21.9128   19.6662   96.7066 C.2     1  UNL         0.4111
     33 O033      -21.7192   18.4570   96.8359 O.2     1  UNL        -0.2242
     34 O034      -23.1034   20.2197   96.4560 O.3     1  UNL        -0.4496
     35 C035      -24.2744   19.4175   96.4336 C.3     1  UNL         0.0904
     36 H036      -24.1647   18.5303   97.0580 H       1  UNL         0.0705
     37 H037      -24.4634   19.0797   95.4139 H       1  UNL         0.0705
     38 C038      -25.4530   20.2494   96.9447 C.3     1  UNL        -0.0305
     39 H039      -26.3719   19.6640   96.9400 H       1  UNL         0.0265
     40 H040      -25.6105   21.1314   96.3247 H       1  UNL         0.0265
     41 H041      -25.2845   20.5785   97.9688 H       1  UNL         0.0265
     42 C042      -18.8933   21.8301   97.1762 C.ar    1  UNL        -0.0333
     43 H043      -19.3446   22.7242   96.7679 H       1  UNL         0.0648
     44 C044      -16.4254   24.1419   99.8512 C.ar    1  UNL         0.2666
     45 O045      -15.4191   23.4555  100.0348 O.2     1  UNL        -0.2678
@<TRIPOS>BOND
    1     1     2  1
    2     2    44 ar
    3     2     3 ar
    4     3     4  1
    5     3     5 ar
    6     5     6  1
    7     5    17 ar
    8     6    15 ar
    9     6     7 ar
   10     7     8  1
   11     7     9 ar
   12     9    10  1
   13     9    11 ar
   14    11    12  1
   15    11    13 ar
   16    13    14  1
   17    13    15 ar
   18    15    16  1
   19    17    18 ar
   20    18    19  1
   21    18    44 ar
   22    19    20  1
   23    19    21  1
   24    19    22  1
   25    22    42 ar
   26    22    23 ar
   27    23    24  1
   28    23    25 ar
   29    25    26  1
   30    25    27 ar
   31    27    28  1
   32    27    29 ar
   33    29    30  1
   34    29    42 ar
   35    30    31  1
   36    30    32 am
   37    32    33  2
   38    32    34  1
   39    34    35  1
   40    35    36  1
   41    35    37  1
   42    35    38  1
   43    38    39  1
   44    38    40  1
   45    38    41  1
   46    42    43  1
   47    44    45  2

