@<TRIPOS>MOLECULE
lig_CHEMBL3402744_300_4
42 44 0 0 0
SMALL
GASTEIGER

@<TRIPOS>ATOM
      1 H001      -16.6081   25.0478  101.7835 H       1  UNL         0.0682
      2 C002      -17.0869   25.0418  100.8147 C.ar    1  UNL         0.0072
      3 C003      -18.0950   25.9010  100.5443 C.ar    1  UNL        -0.0284
      4 H004      -18.3961   26.6034  101.3020 H       1  UNL         0.0648
      5 C005      -18.7259   25.8867   99.2283 C.ar    1  UNL         0.0913
      6 C006      -19.7593   26.8771   98.7823 C.ar    1  UNL         0.0077
      7 C007      -20.2574   27.8550   99.6755 C.ar    1  UNL        -0.0166
      8 H008      -19.9878   27.8622  100.7161 H       1  UNL         0.0661
      9 C009      -21.1019   28.8845   99.2114 C.ar    1  UNL         0.1263
     10 F010      -21.5067   29.8626  100.0556 F       1  UNL        -0.2069
     11 C011      -21.4804   28.9298   97.8549 C.ar    1  UNL         0.0096
     12 H012      -22.1034   29.7376   97.4971 H       1  UNL         0.0685
     13 C013      -21.0019   27.9528   96.9608 C.ar    1  UNL         0.1263
     14 F014      -21.3117   28.0263   95.6432 F       1  UNL        -0.2069
     15 C015      -20.1576   26.9212   97.4222 C.ar    1  UNL        -0.0166
     16 H016      -19.7872   26.2079   96.7029 H       1  UNL         0.0661
     17 N017      -18.3261   25.0040   98.3661 N.ar    1  UNL        -0.1693
     18 N018      -17.2691   24.1485   98.6416 N.ar    1  UNL        -0.2250
     19 C019      -16.8750   23.2873   97.5259 C.3     1  UNL         0.0700
     20 H020      -15.7948   23.1314   97.5062 H       1  UNL         0.0568
     21 H021      -17.0978   23.7769   96.5760 H       1  UNL         0.0568
     22 C022      -17.5865   21.9529   97.5901 C.ar    1  UNL        -0.0243
     23 C023      -16.9650   20.8264   98.1632 C.ar    1  UNL        -0.0570
     24 H024      -15.9562   20.8993   98.5455 H       1  UNL         0.0626
     25 C025      -17.6678   19.6109   98.2600 C.ar    1  UNL        -0.0599
     26 H026      -17.1918   18.7505   98.7069 H       1  UNL         0.0624
     27 C027      -18.9927   19.5163   97.7886 C.ar    1  UNL        -0.0384
     28 H028      -19.5031   18.5714   97.8847 H       1  UNL         0.0645
     29 C029      -19.6264   20.6510   97.2258 C.ar    1  UNL         0.0443
     30 N030      -20.9689   20.6864   96.7719 N.am    1  UNL        -0.2913
     31 H031      -21.3384   21.6028   96.5336 H       1  UNL         0.1731
     32 C032      -21.9034   19.6655   96.7240 C.2     1  UNL         0.4108
     33 O033      -21.7122   18.4544   96.8360 O.2     1  UNL        -0.2242
     34 O034      -23.0955   20.2191   96.4822 O.3     1  UNL        -0.4526
     35 C035      -24.2396   19.3870   96.4331 C.3     1  UNL         0.0825
     36 H036      -25.1215   19.9551   96.1366 H       1  UNL         0.0671
     37 H037      -24.4332   18.9331   97.4054 H       1  UNL         0.0671
     38 H038      -24.0877   18.5890   95.7084 H       1  UNL         0.0671
     39 C039      -18.9132   21.8609   97.1347 C.ar    1  UNL        -0.0333
     40 H040      -19.3923   22.7409   96.7312 H       1  UNL         0.0648
     41 C041      -16.5846   24.1066   99.8188 C.ar    1  UNL         0.2666
     42 O042      -15.6169   23.3681  100.0141 O.2     1  UNL        -0.2678
@<TRIPOS>BOND
    1     1     2  1
    2     2    41 ar
    3     2     3 ar
    4     3     4  1
    5     3     5 ar
    6     5     6  1
    7     5    17 ar
    8     6    15 ar
    9     6     7 ar
   10     7     8  1
   11     7     9 ar
   12     9    10  1
   13     9    11 ar
   14    11    12  1
   15    11    13 ar
   16    13    14  1
   17    13    15 ar
   18    15    16  1
   19    17    18 ar
   20    18    19  1
   21    18    41 ar
   22    19    20  1
   23    19    21  1
   24    19    22  1
   25    22    39 ar
   26    22    23 ar
   27    23    24  1
   28    23    25 ar
   29    25    26  1
   30    25    27 ar
   31    27    28  1
   32    27    29 ar
   33    29    30  1
   34    29    39 ar
   35    30    31  1
   36    30    32 am
   37    32    33  2
   38    32    34  1
   39    34    35  1
   40    35    36  1
   41    35    37  1
   42    35    38  1
   43    39    40  1
   44    41    42  2

