@<TRIPOS>MOLECULE
lig_CHEMBL3402754_40_14
45 48 0 0 0
SMALL
GASTEIGER

@<TRIPOS>ATOM
      1 H001      -16.5418   25.2744  101.7336 H       1  UNL         0.0682
      2 C002      -17.0533   25.1909  100.7869 C.ar    1  UNL         0.0072
      3 C003      -18.1177   25.9872  100.5385 C.ar    1  UNL        -0.0284
      4 H004      -18.4480   26.6865  101.2858 H       1  UNL         0.0648
      5 C005      -18.8269   25.8657   99.2733 C.ar    1  UNL         0.0913
      6 C006      -20.0072   26.6898   98.9069 C.ar    1  UNL         0.0077
      7 C007      -20.3108   27.8620   99.6339 C.ar    1  UNL        -0.0166
      8 H008      -19.6828   28.2099  100.4351 H       1  UNL         0.0661
      9 C009      -21.4234   28.6435   99.2686 C.ar    1  UNL         0.1263
     10 F010      -21.6992   29.7815   99.9475 F       1  UNL        -0.2069
     11 C011      -22.2382   28.2529   98.1879 C.ar    1  UNL         0.0096
     12 H012      -23.0900   28.8562   97.9107 H       1  UNL         0.0685
     13 C013      -21.9359   27.0841   97.4628 C.ar    1  UNL         0.1263
     14 F014      -22.7073   26.7129   96.4141 F       1  UNL        -0.2069
     15 C015      -20.8236   26.3002   97.8199 C.ar    1  UNL        -0.0166
     16 H016      -20.6104   25.4089   97.2511 H       1  UNL         0.0661
     17 N017      -18.4085   25.0028   98.4053 N.ar    1  UNL        -0.1693
     18 N018      -17.3013   24.2146   98.6492 N.ar    1  UNL        -0.2250
     19 C019      -16.9443   23.3352   97.5352 C.3     1  UNL         0.0700
     20 H020      -15.8636   23.1930   97.4734 H       1  UNL         0.0568
     21 H021      -17.2185   23.8034   96.5879 H       1  UNL         0.0568
     22 C022      -17.6352   21.9890   97.6390 C.ar    1  UNL        -0.0256
     23 C023      -16.9745   20.9249   98.2889 C.ar    1  UNL        -0.0571
     24 H024      -15.9843   21.0702   98.6965 H       1  UNL         0.0626
     25 C025      -17.5877   19.6636   98.3852 C.ar    1  UNL        -0.0612
     26 H026      -17.0738   18.8390   98.8562 H       1  UNL         0.0623
     27 C027      -18.8769   19.4873   97.8692 C.ar    1  UNL        -0.0512
     28 H028      -19.3215   18.5054   97.9504 H       1  UNL         0.0630
     29 C029      -19.5661   20.5449   97.2271 C.ar    1  UNL         0.0195
     30 C030      -20.8867   20.2085   96.6701 C.ar    1  UNL         0.1586
     31 N031      -21.3089   20.9691   95.6827 N.ar    1  UNL        -0.2363
     32 C032      -22.6461   21.0691   95.5473 C.ar    1  UNL         0.0338
     33 H033      -22.9497   21.8133   94.8351 H       1  UNL         0.0844
     34 C034      -23.5258   20.1367   96.1103 C.ar    1  UNL        -0.0143
     35 C035      -25.0097   20.1446   95.8205 C.3     1  UNL        -0.0367
     36 H036      -25.5764   19.8067   96.6889 H       1  UNL         0.0281
     37 H037      -25.2368   19.4870   94.9824 H       1  UNL         0.0281
     38 H038      -25.3302   21.1552   95.5713 H       1  UNL         0.0281
     39 C039      -22.9188   19.1603   96.9108 C.ar    1  UNL         0.0338
     40 H040      -23.4934   18.3591   97.3493 H       1  UNL         0.0844
     41 N041      -21.6101   19.2305   97.2352 N.ar    1  UNL        -0.2363
     42 C042      -18.9341   21.8034   97.1093 C.ar    1  UNL        -0.0461
     43 H043      -19.4400   22.6203   96.6147 H       1  UNL         0.0634
     44 C044      -16.5701   24.2267   99.8008 C.ar    1  UNL         0.2666
     45 O045      -15.5935   23.4957   99.9811 O.2     1  UNL        -0.2678
@<TRIPOS>BOND
    1     1     2  1
    2     2    44 ar
    3     2     3 ar
    4     3     4  1
    5     3     5 ar
    6     5     6  1
    7     5    17 ar
    8     6    15 ar
    9     6     7 ar
   10     7     8  1
   11     7     9 ar
   12     9    10  1
   13     9    11 ar
   14    11    12  1
   15    11    13 ar
   16    13    14  1
   17    13    15 ar
   18    15    16  1
   19    17    18 ar
   20    18    19  1
   21    18    44 ar
   22    19    20  1
   23    19    21  1
   24    19    22  1
   25    22    42 ar
   26    22    23 ar
   27    23    24  1
   28    23    25 ar
   29    25    26  1
   30    25    27 ar
   31    27    28  1
   32    27    29 ar
   33    29    30  1
   34    29    42 ar
   35    30    41 ar
   36    30    31 ar
   37    31    32 ar
   38    32    33  1
   39    32    34 ar
   40    34    35  1
   41    34    39 ar
   42    35    36  1
   43    35    37  1
   44    35    38  1
   45    39    40  1
   46    39    41 ar
   47    42    43  1
   48    44    45  2

