lig_20
                    3D
 Schrodinger Suite 2022-3.
 49 52  0  0  1  0            999 V2000
    4.4517   38.4986   46.2155 H   0  0  0  0  0  0
    3.6305   38.9670   46.0960 O   0  0  0  0  0  0
    3.9429   40.3438   46.0745 C   0  0  0  0  0  0
    4.6371   40.5203   45.2491 H   0  0  0  0  0  0
    3.0391   40.9113   45.8530 H   0  0  0  0  0  0
    4.5384   40.8263   47.3845 C   0  0  0  0  0  0
    3.8926   40.5249   48.6031 C   0  0  0  0  0  0
    2.9807   39.9419   48.6052 H   0  0  0  0  0  0
    4.4454   40.9439   49.8225 C   0  0  0  0  0  0
    3.9632   40.6930   50.7532 H   0  0  0  0  0  0
    5.6391   41.6861   49.8208 C   0  0  0  0  0  0
    6.0614   41.9993   50.7646 H   0  0  0  0  0  0
    6.2826   42.0320   48.6078 C   0  0  0  0  0  0
    7.4439   42.8195   48.6003 N   0  0  0  0  0  0
    8.1623   42.4831   47.9724 H   0  0  0  0  0  0
    7.8622   43.8290   49.4212 C   0  0  0  0  0  0
    6.9029   44.4274   50.1220 N   0  0  0  0  0  0
    7.2149   45.3363   51.0664 C   0  0  0  0  0  0
    6.2204   45.8673   51.8555 O   0  0  0  0  0  0
    4.8749   45.5800   51.4828 C   0  0  0  0  0  0
    4.6429   46.1777   50.5971 H   0  0  0  0  0  0
    4.7205   44.5423   51.1892 H   0  0  0  0  0  0
    3.8906   45.8638   52.6222 C   0  0  0  0  0  0
    4.1062   46.8489   53.0429 H   0  0  0  0  0  0
    2.4632   45.8951   52.0414 C   0  0  0  0  0  0
    2.3798   46.7081   51.3192 H   0  0  0  0  0  0
    2.2683   44.9647   51.5036 H   0  0  0  0  0  0
    1.3983   46.0719   53.1392 C   0  0  0  0  0  0
    1.5103   47.0513   53.6030 H   0  0  0  0  0  0
    0.4038   46.0533   52.6871 H   0  0  0  0  0  0
    1.5220   44.9764   54.2071 C   0  0  0  0  0  0
    0.7782   45.1385   54.9909 H   0  0  0  0  0  0
    1.3076   44.0004   53.7658 H   0  0  0  0  0  0
    2.9277   44.9723   54.8234 C   0  0  0  0  0  0
    3.1025   45.9033   55.3658 H   0  0  0  0  0  0
    3.0098   44.1694   55.5517 H   0  0  0  0  0  0
    4.0044   44.7947   53.7332 C   0  0  0  0  0  0
    3.9037   43.7959   53.3063 H   0  0  0  0  0  0
    4.9939   44.8326   54.1940 H   0  0  0  0  0  0
    8.5773   45.6593   51.2568 C   0  0  0  0  0  0
    9.2376   46.5241   52.1243 N   0  0  0  0  0  0
   10.5037   46.3017   51.7825 C   0  0  0  0  0  0
   11.3263   46.8424   52.2217 H   0  0  0  0  0  0
   10.7133   45.4048   50.8180 N   0  0  0  0  0  0
   11.6330   45.1778   50.4299 H   0  0  0  0  0  0
    9.4825   44.9478   50.4203 C   0  0  0  0  0  0
    9.1823   44.0284   49.4621 N   0  0  0  0  0  0
    5.7300   41.5805   47.3955 C   0  0  0  0  0  0
    6.2279   41.8235   46.4695 H   0  0  0  0  0  0
  1  2  1  0  0  0
  2  3  1  0  0  0
  3  4  1  0  0  0
  3  5  1  0  0  0
  3  6  1  0  0  0
  6 48  1  0  0  0
  6  7  2  0  0  0
  7  8  1  0  0  0
  7  9  1  0  0  0
  9 10  1  0  0  0
  9 11  2  0  0  0
 11 12  1  0  0  0
 11 13  1  0  0  0
 13 14  1  0  0  0
 13 48  2  0  0  0
 14 15  1  0  0  0
 14 16  1  0  0  0
 16 47  1  0  0  0
 16 17  2  0  0  0
 17 18  1  0  0  0
 18 19  1  0  0  0
 18 40  2  0  0  0
 19 20  1  0  0  0
 20 21  1  0  0  0
 20 22  1  0  0  0
 20 23  1  0  0  0
 23 37  1  0  0  0
 23 24  1  0  0  0
 23 25  1  0  0  0
 25 26  1  0  0  0
 25 27  1  0  0  0
 25 28  1  0  0  0
 28 29  1  0  0  0
 28 30  1  0  0  0
 28 31  1  0  0  0
 31 32  1  0  0  0
 31 33  1  0  0  0
 31 34  1  0  0  0
 34 35  1  0  0  0
 34 36  1  0  0  0
 34 37  1  0  0  0
 37 38  1  0  0  0
 37 39  1  0  0  0
 40 46  1  0  0  0
 40 41  1  0  0  0
 41 42  2  0  0  0
 42 43  1  0  0  0
 42 44  1  0  0  0
 44 45  1  0  0  0
 44 46  1  0  0  0
 46 47  2  0  0  0
 48 49  1  0  0  0
M  END
> <s_m_source_file>
ligprep_cdk2.smi

> <i_m_source_file_index>
8

> <i_lp_mmshare_version>
53161

> <i_f3d_flags>
0

> <s_epik_input>
W09IXVtDSDJdYzFbY0hdW2NIXVtjSF1jKFtjSF0xKVtOSF1jKG5jKGMyMylbbkhdW2NIXW4zKW5jMk9bQ0gyXVtDSF00W0NIMl1bQ0gyXVtDSDJdW0NIMl1bQ0gyXTQ=

> <s_epik_cmdline>
J2VwaWtfcHl0aG9uJywgJy1waHQnLCAnMC4wJywgJy1waCcsICc3LjQnLCAnLXRuJywgJzgnLCAnLW1hJywgJzUwMCcsICctaW1hZScsICc8aW5maWxlLm1hZT4nLCAnLW9tYWUnLCAnPG91dGZpbGUubWFlPic=

> <r_lp_tautomer_probability>
1

> <r_epik_Ionization_Penalty>
  0.0272

> <r_epik_Ionization_Penalty_Charging>
  0.0000

> <r_epik_Ionization_Penalty_Neutral>
  0.0272

> <r_epik_State_Penalty>
 -0.0000

> <r_epik_Charging_Adjusted_Penalty>
0

> <i_epik_Tot_Q>
0

> <i_epik_Tot_abs_Q>
0

> <s_lp_Force_Field>
S-OPLS

> <r_lp_Energy>
27.442

> <b_lp_Chiralities_Consistent>
1

> <s_lp_Variant>
lig_20-1

> <s_i_glide_gridfile>
glide-grid_CDK2-1H1Q

> <i_i_glide_lignum>
8

> <i_i_glide_rotatable_bonds>
7

> <r_i_docking_score>
-11.1032083599231

> <r_i_glide_ligand_efficiency>
-0.427046475381658

> <r_i_glide_ligand_efficiency_sa>
-1.26512350297142

> <r_i_glide_ligand_efficiency_ln>
-2.60755205072974

> <r_i_glide_gscore>
-11.1032083599231

> <r_i_glide_lipo>
-2.55596274863003

> <r_i_glide_hbond>
-1.40887836667089

> <r_i_glide_metal>
-0

> <r_i_glide_rewards>
-3.2772628052563

> <r_i_glide_evdw>
-42.8144302368164

> <r_i_glide_ecoul>
-15.7501306533813

> <r_i_glide_erotb>
0.642136670482126

> <r_i_glide_esite>
0

> <r_i_glide_emodel>
-94.5524345457787

> <r_i_glide_energy>
-58.5645608901978

> <r_i_glide_einternal>
0.3702312707901

> <i_i_glide_confnum>
4

> <i_i_glide_posenum>
2

> <r_i_glide_eff_state_penalty>
-0

> <r_i_glide_rmsd>
0.0997023861208572

> <s_glide_core_constrain_type>
snapped_core_restrain

$$$$
lig_1oi9
                    3D
 Schrodinger Suite 2022-3.
 46 49  0  0  1  0            999 V2000
    2.5333   39.7162   49.5076 H   0  0  0  0  0  0
    2.6830   40.0228   48.6217 O   0  0  0  0  0  0
    3.8917   40.6368   48.5940 C   0  0  0  0  0  0
    4.4898   40.9991   49.8105 C   0  0  0  0  0  0
    4.0133   40.7752   50.7499 H   0  0  0  0  0  0
    5.7116   41.6925   49.8005 C   0  0  0  0  0  0
    6.1436   41.9844   50.7440 H   0  0  0  0  0  0
    6.3240   42.0432   48.5760 C   0  0  0  0  0  0
    7.4829   42.8262   48.5732 N   0  0  0  0  0  0
    8.2101   42.4995   47.9396 H   0  0  0  0  0  0
    7.8814   43.8417   49.4039 C   0  0  0  0  0  0
    6.9135   44.4329   50.1060 N   0  0  0  0  0  0
    7.2167   45.3365   51.0629 C   0  0  0  0  0  0
    6.2208   45.8634   51.8525 O   0  0  0  0  0  0
    4.8839   45.5742   51.4718 C   0  0  0  0  0  0
    4.7382   44.5282   51.1863 H   0  0  0  0  0  0
    4.6577   46.1637   50.5833 H   0  0  0  0  0  0
    3.8950   45.8565   52.6087 C   0  0  0  0  0  0
    4.1040   46.8386   53.0348 H   0  0  0  0  0  0
    2.4697   45.8904   52.0385 C   0  0  0  0  0  0
    2.2643   44.9535   51.5128 H   0  0  0  0  0  0
    2.3810   46.6874   51.3020 H   0  0  0  0  0  0
    1.4063   46.0972   53.1265 C   0  0  0  0  0  0
    0.4077   46.0717   52.6739 H   0  0  0  0  0  0
    1.5265   47.0843   53.5760 H   0  0  0  0  0  0
    1.5208   45.0240   54.2183 C   0  0  0  0  0  0
    1.2872   44.0427   53.8058 H   0  0  0  0  0  0
    0.7851   45.2074   55.0045 H   0  0  0  0  0  0
    2.9302   45.0058   54.8251 C   0  0  0  0  0  0
    3.0065   44.2162   55.5780 H   0  0  0  0  0  0
    3.1181   45.9441   55.3419 H   0  0  0  0  0  0
    4.0028   44.8012   53.7385 C   0  0  0  0  0  0
    4.9974   44.8291   54.1910 H   0  0  0  0  0  0
    3.8939   43.7981   53.3226 H   0  0  0  0  0  0
    8.5736   45.6583   51.2551 C   0  0  0  0  0  0
    9.2353   46.5199   52.1231 N   0  0  0  0  0  0
   10.5007   46.2986   51.7823 C   0  0  0  0  0  0
   11.3298   46.8267   52.2159 H   0  0  0  0  0  0
   10.7103   45.4142   50.8028 N   0  0  0  0  0  0
   11.6317   45.2084   50.3933 H   0  0  0  0  0  0
    9.4831   44.9636   50.4102 C   0  0  0  0  0  0
    9.1964   44.0521   49.4421 N   0  0  0  0  0  0
    5.7494   41.6146   47.3639 C   0  0  0  0  0  0
    6.2236   41.8601   46.4236 H   0  0  0  0  0  0
    4.5371   40.9039   47.3704 C   0  0  0  0  0  0
    4.0859   40.5989   46.4408 H   0  0  0  0  0  0
  1  2  1  0  0  0
  2  3  1  0  0  0
  3 45  1  0  0  0
  3  4  2  0  0  0
  4  5  1  0  0  0
  4  6  1  0  0  0
  6  7  1  0  0  0
  6  8  2  0  0  0
  8  9  1  0  0  0
  8 43  1  0  0  0
  9 10  1  0  0  0
  9 11  1  0  0  0
 11 42  1  0  0  0
 11 12  2  0  0  0
 12 13  1  0  0  0
 13 14  1  0  0  0
 13 35  2  0  0  0
 14 15  1  0  0  0
 15 16  1  0  0  0
 15 17  1  0  0  0
 15 18  1  0  0  0
 18 32  1  0  0  0
 18 19  1  0  0  0
 18 20  1  0  0  0
 20 21  1  0  0  0
 20 22  1  0  0  0
 20 23  1  0  0  0
 23 24  1  0  0  0
 23 25  1  0  0  0
 23 26  1  0  0  0
 26 27  1  0  0  0
 26 28  1  0  0  0
 26 29  1  0  0  0
 29 30  1  0  0  0
 29 31  1  0  0  0
 29 32  1  0  0  0
 32 33  1  0  0  0
 32 34  1  0  0  0
 35 41  1  0  0  0
 35 36  1  0  0  0
 36 37  2  0  0  0
 37 38  1  0  0  0
 37 39  1  0  0  0
 39 40  1  0  0  0
 39 41  1  0  0  0
 41 42  2  0  0  0
 43 44  1  0  0  0
 43 45  2  0  0  0
 45 46  1  0  0  0
M  END
> <s_m_source_file>
ligprep_cdk2.smi

> <i_m_source_file_index>
5

> <i_lp_mmshare_version>
53161

> <i_f3d_flags>
0

> <s_epik_input>
W09IXWMxW2NIXVtjSF1jKFtjSF1bY0hdMSlbTkhdYyhuYyhjMjMpW25IXVtjSF1uMyluYzJPW0NIMl1bQ0hdNFtDSDJdW0NIMl1bQ0gyXVtDSDJdW0NIMl00

> <s_epik_cmdline>
J2VwaWtfcHl0aG9uJywgJy1waHQnLCAnMC4wJywgJy1waCcsICc3LjQnLCAnLXRuJywgJzgnLCAnLW1hJywgJzUwMCcsICctaW1hZScsICc8aW5maWxlLm1hZT4nLCAnLW9tYWUnLCAnPG91dGZpbGUubWFlPic=

> <r_lp_tautomer_probability>
1

> <r_epik_Ionization_Penalty>
  0.0275

> <r_epik_Ionization_Penalty_Charging>
  0.0000

> <r_epik_Ionization_Penalty_Neutral>
  0.0275

> <r_epik_State_Penalty>
 -0.0000

> <r_epik_Charging_Adjusted_Penalty>
0

> <i_epik_Tot_Q>
0

> <i_epik_Tot_abs_Q>
0

> <s_lp_Force_Field>
S-OPLS

> <r_lp_Energy>
23.9094

> <b_lp_Chiralities_Consistent>
1

> <s_lp_Variant>
lig_1oi9-1

> <s_i_glide_gridfile>
glide-grid_CDK2-1H1Q

> <i_i_glide_lignum>
5

> <i_i_glide_rotatable_bonds>
6

> <r_i_docking_score>
-10.6672790669026

> <r_i_glide_ligand_efficiency>
-0.426691162676104

> <r_i_glide_ligand_efficiency_sa>
-1.24765252706492

> <r_i_glide_ligand_efficiency_ln>
-2.52846481141356

> <r_i_glide_gscore>
-10.6672790669026

> <r_i_glide_lipo>
-2.59091159223022

> <r_i_glide_hbond>
-1.089551145482

> <r_i_glide_metal>
-0

> <r_i_glide_rewards>
-3.37906280201275

> <r_i_glide_evdw>
-39.9301300048828

> <r_i_glide_ecoul>
-15.3417882919312

> <r_i_glide_erotb>
0.690021216856172

> <r_i_glide_esite>
0

> <r_i_glide_emodel>
-88.7248185962595

> <r_i_glide_energy>
-55.271918296814

> <r_i_glide_einternal>
0.128775343298912

> <i_i_glide_confnum>
3

> <i_i_glide_posenum>
6

> <r_i_glide_eff_state_penalty>
-0

> <r_i_glide_rmsd>
0.0941845558321432

> <s_glide_core_constrain_type>
snapped_core_restrain

$$$$
lig_26
                    3D
 Schrodinger Suite 2022-3.
 49 52  0  0  1  0            999 V2000
   11.3522   46.8262   52.2679 H   0  0  0  0  0  0
   10.5260   46.3045   51.8194 C   0  0  0  0  0  0
    9.2557   46.5589   52.1262 N   0  0  0  0  0  0
    8.5976   45.6872   51.2631 C   0  0  0  0  0  0
    7.2242   45.3721   51.0671 C   0  0  0  0  0  0
    6.2145   45.8903   51.8424 O   0  0  0  0  0  0
    4.8835   45.5452   51.4858 C   0  0  0  0  0  0
    4.7507   44.4913   51.2346 H   0  0  0  0  0  0
    4.6469   46.1060   50.5777 H   0  0  0  0  0  0
    3.8968   45.8461   52.6185 C   0  0  0  0  0  0
    4.0960   46.8394   53.0392 H   0  0  0  0  0  0
    2.4662   45.8837   52.0447 C   0  0  0  0  0  0
    2.2628   44.9456   51.5237 H   0  0  0  0  0  0
    2.3804   46.6820   51.3118 H   0  0  0  0  0  0
    1.4055   46.0922   53.1374 C   0  0  0  0  0  0
    0.4115   46.0697   52.6932 H   0  0  0  0  0  0
    1.5324   47.0772   53.5833 H   0  0  0  0  0  0
    1.5208   45.0118   54.2336 C   0  0  0  0  0  0
    1.2898   44.0362   53.8107 H   0  0  0  0  0  0
    0.7874   45.2046   55.0120 H   0  0  0  0  0  0
    2.9303   45.0001   54.8396 C   0  0  0  0  0  0
    3.0044   44.1981   55.5784 H   0  0  0  0  0  0
    3.1174   45.9283   55.3661 H   0  0  0  0  0  0
    3.9977   44.7944   53.7494 C   0  0  0  0  0  0
    4.9940   44.8207   54.2014 H   0  0  0  0  0  0
    3.8868   43.7950   53.3347 H   0  0  0  0  0  0
    6.9186   44.4578   50.1158 N   0  0  0  0  0  0
    7.8924   43.8557   49.4325 C   0  0  0  0  0  0
    7.4996   42.8176   48.6339 N   0  0  0  0  0  0
    8.1911   42.4793   47.9762 H   0  0  0  0  0  0
    6.3368   42.0554   48.6146 C   0  0  0  0  0  0
    5.8640   41.5849   47.3822 C   0  0  0  0  0  0
    6.3891   41.8014   46.4733 H   0  0  0  0  0  0
    4.6720   40.8519   47.3254 C   0  0  0  0  0  0
    4.3590   40.5478   46.3362 H   0  0  0  0  0  0
    3.9257   40.5861   48.4997 C   0  0  0  0  0  0
    2.7181   39.9372   48.4690 O   0  0  0  0  0  0
    2.4276   39.1691   47.3172 C   0  0  0  0  0  0
    1.5264   38.5452   47.4227 H   0  0  0  0  0  0
    2.2444   39.8112   46.4549 H   0  0  0  0  0  0
    3.2334   38.4740   47.1099 H   0  0  0  0  0  0
    4.4250   41.0186   49.7506 C   0  0  0  0  0  0
    3.8752   40.8182   50.6666 H   0  0  0  0  0  0
    5.6379   41.7399   49.8042 C   0  0  0  0  0  0
    6.0182   42.0704   50.7696 H   0  0  0  0  0  0
    9.2086   44.0483   49.4786 N   0  0  0  0  0  0
    9.5108   44.9594   50.4506 C   0  0  0  0  0  0
   10.7361   45.3848   50.8746 N   0  0  0  0  0  0
   11.6544   45.1213   50.4916 H   0  0  0  0  0  0
  1  2  1  0  0  0
  2 48  1  0  0  0
  2  3  2  0  0  0
  3  4  1  0  0  0
  4 47  1  0  0  0
  4  5  2  0  0  0
  5  6  1  0  0  0
  5 27  1  0  0  0
  6  7  1  0  0  0
  7  8  1  0  0  0
  7  9  1  0  0  0
  7 10  1  0  0  0
 10 24  1  0  0  0
 10 11  1  0  0  0
 10 12  1  0  0  0
 12 13  1  0  0  0
 12 14  1  0  0  0
 12 15  1  0  0  0
 15 16  1  0  0  0
 15 17  1  0  0  0
 15 18  1  0  0  0
 18 19  1  0  0  0
 18 20  1  0  0  0
 18 21  1  0  0  0
 21 22  1  0  0  0
 21 23  1  0  0  0
 21 24  1  0  0  0
 24 25  1  0  0  0
 24 26  1  0  0  0
 27 28  2  0  0  0
 28 29  1  0  0  0
 28 46  1  0  0  0
 29 30  1  0  0  0
 29 31  1  0  0  0
 31 44  1  0  0  0
 31 32  2  0  0  0
 32 33  1  0  0  0
 32 34  1  0  0  0
 34 35  1  0  0  0
 34 36  2  0  0  0
 36 37  1  0  0  0
 36 42  1  0  0  0
 37 38  1  0  0  0
 38 39  1  0  0  0
 38 40  1  0  0  0
 38 41  1  0  0  0
 42 43  1  0  0  0
 42 44  2  0  0  0
 44 45  1  0  0  0
 46 47  2  0  0  0
 47 48  1  0  0  0
 48 49  1  0  0  0
M  END
> <s_m_source_file>
ligprep_cdk2.smi

> <i_m_source_file_index>
11

> <i_lp_mmshare_version>
53161

> <i_f3d_flags>
0

> <s_epik_input>
W0NIM11PYyhbY0hdW2NIXTEpW2NIXVtjSF1jMVtOSF1jKG5jKGMyMylbbkhdW2NIXW4yKW5jM09bQ0gyXVtDSF00W0NIMl1bQ0gyXVtDSDJdW0NIMl1bQ0gyXTQ=

> <s_epik_cmdline>
J2VwaWtfcHl0aG9uJywgJy1waHQnLCAnMC4wJywgJy1waCcsICc3LjQnLCAnLXRuJywgJzgnLCAnLW1hJywgJzUwMCcsICctaW1hZScsICc8aW5maWxlLm1hZT4nLCAnLW9tYWUnLCAnPG91dGZpbGUubWFlPic=

> <r_lp_tautomer_probability>
1

> <r_epik_Ionization_Penalty>
  0.0272

> <r_epik_Ionization_Penalty_Charging>
  0.0000

> <r_epik_Ionization_Penalty_Neutral>
  0.0272

> <r_epik_State_Penalty>
 -0.0000

> <r_epik_Charging_Adjusted_Penalty>
0

> <i_epik_Tot_Q>
0

> <i_epik_Tot_abs_Q>
0

> <s_lp_Force_Field>
S-OPLS

> <r_lp_Energy>
29.9088

> <b_lp_Chiralities_Consistent>
1

> <s_lp_Variant>
lig_26-1

> <s_i_glide_gridfile>
glide-grid_CDK2-1H1Q

> <i_i_glide_lignum>
11

> <i_i_glide_rotatable_bonds>
6

> <r_i_docking_score>
-10.4270750677794

> <r_i_glide_ligand_efficiency>
-0.401041348760745

> <r_i_glide_ligand_efficiency_sa>
-1.1880834176822

> <r_i_glide_ligand_efficiency_ln>
-2.44876436564406

> <r_i_glide_gscore>
-10.4270750677794

> <r_i_glide_lipo>
-2.58103475987392

> <r_i_glide_hbond>
-1.09439987325527

> <r_i_glide_metal>
-0

> <r_i_glide_rewards>
-3.2287247865593

> <r_i_glide_evdw>
-41.8551063537598

> <r_i_glide_ecoul>
-13.8153133392334

> <r_i_glide_erotb>
0.642136670482126

> <r_i_glide_esite>
0

> <r_i_glide_emodel>
-85.6061572413317

> <r_i_glide_energy>
-55.6704196929932

> <r_i_glide_einternal>
3.4173538684845

> <i_i_glide_confnum>
8

> <i_i_glide_posenum>
1

> <r_i_glide_eff_state_penalty>
-0

> <r_i_glide_rmsd>
0.104308136780961

> <s_glide_core_constrain_type>
snapped_core_restrain

$$$$
lig_1oiu
                    3D
 Schrodinger Suite 2022-3.
 50 53  0  0  1  0            999 V2000
   11.3150   46.8573   52.2198 H   0  0  0  0  0  0
   10.4943   46.3130   51.7756 C   0  0  0  0  0  0
    9.2259   46.5247   52.1147 N   0  0  0  0  0  0
    8.5748   45.6545   51.2494 C   0  0  0  0  0  0
    7.2198   45.3302   51.0583 C   0  0  0  0  0  0
    6.2200   45.8692   51.8358 O   0  0  0  0  0  0
    4.8812   45.5417   51.4734 C   0  0  0  0  0  0
    4.7464   44.4867   51.2196 H   0  0  0  0  0  0
    4.6396   46.1121   50.5741 H   0  0  0  0  0  0
    3.8908   45.8433   52.6076 C   0  0  0  0  0  0
    4.1007   46.8322   53.0183 H   0  0  0  0  0  0
    2.4627   45.8636   52.0308 C   0  0  0  0  0  0
    2.2702   44.9235   51.5126 H   0  0  0  0  0  0
    2.3780   46.6557   51.2858 H   0  0  0  0  0  0
    1.4046   46.0720   53.1190 C   0  0  0  0  0  0
    0.4111   46.0477   52.6724 H   0  0  0  0  0  0
    1.5262   47.0612   53.5601 H   0  0  0  0  0  0
    1.5196   45.0061   54.2175 C   0  0  0  0  0  0
    1.2882   44.0226   53.8047 H   0  0  0  0  0  0
    0.7812   45.1987   54.9961 H   0  0  0  0  0  0
    2.9310   44.9959   54.8248 C   0  0  0  0  0  0
    3.0054   44.2058   55.5740 H   0  0  0  0  0  0
    3.1118   45.9347   55.3497 H   0  0  0  0  0  0
    4.0028   44.7944   53.7404 C   0  0  0  0  0  0
    4.9941   44.8281   54.1957 H   0  0  0  0  0  0
    3.8947   43.7916   53.3263 H   0  0  0  0  0  0
    6.9126   44.4246   50.1034 N   0  0  0  0  0  0
    7.8736   43.8237   49.3983 C   0  0  0  0  0  0
    7.4607   42.8069   48.5761 N   0  0  0  0  0  0
    8.1741   42.4642   47.9445 H   0  0  0  0  0  0
    6.2960   42.0260   48.5815 C   0  0  0  0  0  0
    5.7319   41.5792   47.3698 C   0  0  0  0  0  0
    6.2038   41.8195   46.4280 H   0  0  0  0  0  0
    4.5340   40.8334   47.3951 C   0  0  0  0  0  0
    3.7788   40.2936   45.8731 S   0  0  0  0  0  0
    2.4680   40.9508   45.7557 O   0  0  0  0  0  0
    4.7768   40.3709   44.7966 O   0  0  0  0  0  0
    3.4836   38.6320   46.1787 N   0  0  0  0  0  0
    2.9245   38.2378   45.4266 H   0  0  0  0  0  0
    4.3849   38.1386   46.2239 H   0  0  0  0  0  0
    3.9012   40.5161   48.6124 C   0  0  0  0  0  0
    2.9856   39.9470   48.6221 H   0  0  0  0  0  0
    4.4851   40.9285   49.8222 C   0  0  0  0  0  0
    4.0229   40.6852   50.7688 H   0  0  0  0  0  0
    5.6837   41.6643   49.8026 C   0  0  0  0  0  0
    6.1276   41.9667   50.7378 H   0  0  0  0  0  0
    9.1901   44.0328   49.4435 N   0  0  0  0  0  0
    9.4849   44.9518   50.4087 C   0  0  0  0  0  0
   10.7113   45.4115   50.8077 N   0  0  0  0  0  0
   11.6282   45.2022   50.4055 H   0  0  0  0  0  0
  1  2  1  0  0  0
  2 49  1  0  0  0
  2  3  2  0  0  0
  3  4  1  0  0  0
  4 48  1  0  0  0
  4  5  2  0  0  0
  5  6  1  0  0  0
  5 27  1  0  0  0
  6  7  1  0  0  0
  7  8  1  0  0  0
  7  9  1  0  0  0
  7 10  1  0  0  0
 10 24  1  0  0  0
 10 11  1  0  0  0
 10 12  1  0  0  0
 12 13  1  0  0  0
 12 14  1  0  0  0
 12 15  1  0  0  0
 15 16  1  0  0  0
 15 17  1  0  0  0
 15 18  1  0  0  0
 18 19  1  0  0  0
 18 20  1  0  0  0
 18 21  1  0  0  0
 21 22  1  0  0  0
 21 23  1  0  0  0
 21 24  1  0  0  0
 24 25  1  0  0  0
 24 26  1  0  0  0
 27 28  2  0  0  0
 28 29  1  0  0  0
 28 47  1  0  0  0
 29 30  1  0  0  0
 29 31  1  0  0  0
 31 45  1  0  0  0
 31 32  2  0  0  0
 32 33  1  0  0  0
 32 34  1  0  0  0
 34 35  1  0  0  0
 34 41  2  0  0  0
 35 36  2  0  0  0
 35 37  2  0  0  0
 35 38  1  0  0  0
 38 39  1  0  0  0
 38 40  1  0  0  0
 41 42  1  0  0  0
 41 43  1  0  0  0
 43 44  1  0  0  0
 43 45  2  0  0  0
 45 46  1  0  0  0
 47 48  2  0  0  0
 48 49  1  0  0  0
 49 50  1  0  0  0
M  END
> <s_m_source_file>
ligprep_cdk2.smi

> <i_m_source_file_index>
6

> <i_lp_mmshare_version>
53161

> <i_f3d_flags>
0

> <s_epik_input>
W2NIXTFbY0hdW2NIXWMoUyg9TykoPU8pW05IMl0pW2NIXWMxW05IXWMobmMoYzIzKVtuSF1bY0hdbjIpbmMzT1tDSDJdW0NIXTRbQ0gyXVtDSDJdW0NIMl1bQ0gyXVtDSDJdNA==

> <s_epik_cmdline>
J2VwaWtfcHl0aG9uJywgJy1waHQnLCAnMC4wJywgJy1waCcsICc3LjQnLCAnLXRuJywgJzgnLCAnLW1hJywgJzUwMCcsICctaW1hZScsICc8aW5maWxlLm1hZT4nLCAnLW9tYWUnLCAnPG91dGZpbGUubWFlPic=

> <r_lp_tautomer_probability>
1

> <r_epik_Ionization_Penalty>
  0.0286

> <r_epik_Ionization_Penalty_Charging>
  0.0000

> <r_epik_Ionization_Penalty_Neutral>
  0.0286

> <r_epik_State_Penalty>
 -0.0000

> <r_epik_Charging_Adjusted_Penalty>
0

> <i_epik_Tot_Q>
0

> <i_epik_Tot_abs_Q>
0

> <s_lp_Force_Field>
S-OPLS

> <r_lp_Energy>
23.4058

> <b_lp_Chiralities_Consistent>
1

> <s_lp_Variant>
lig_1oiu-1

> <s_i_glide_gridfile>
glide-grid_CDK2-1H1Q

> <i_i_glide_lignum>
6

> <i_i_glide_rotatable_bonds>
6

> <r_i_docking_score>
-10.4130493140155

> <r_i_glide_ligand_efficiency>
-0.371894618357697

> <r_i_glide_ligand_efficiency_sa>
-1.12929109555055

> <r_i_glide_ligand_efficiency_ln>
-2.40363752208789

> <r_i_glide_gscore>
-10.4130493140155

> <r_i_glide_lipo>
-2.55458752595123

> <r_i_glide_hbond>
-1.41345631221913

> <r_i_glide_metal>
-0

> <r_i_glide_rewards>
-2.21481576179593

> <r_i_glide_evdw>
-46.6265487670898

> <r_i_glide_ecoul>
-15.2844476699829

> <r_i_glide_erotb>
0.508825020604599

> <r_i_glide_esite>
-0.115020145801886

> <r_i_glide_emodel>
-95.3416532094062

> <r_i_glide_energy>
-61.9109964370728

> <r_i_glide_einternal>
0.158618360757828

> <i_i_glide_confnum>
9

> <i_i_glide_posenum>
1

> <r_i_glide_eff_state_penalty>
-0

> <r_i_glide_rmsd>
0.0950876500124034

> <s_glide_core_constrain_type>
snapped_core_restrain

$$$$
lig_1h1q
                    3D
 Schrodinger Suite 2022-3.
 45 48  0  0  1  0            999 V2000
   11.3228   46.8638   52.2217 H   0  0  0  0  0  0
   10.5071   46.3141   51.7805 C   0  0  0  0  0  0
    9.2428   46.5197   52.1267 N   0  0  0  0  0  0
    8.5848   45.6406   51.2776 C   0  0  0  0  0  0
    7.2232   45.3203   51.0908 C   0  0  0  0  0  0
    6.2169   45.8724   51.8521 O   0  0  0  0  0  0
    4.8752   45.5385   51.4903 C   0  0  0  0  0  0
    4.7444   44.4838   51.2354 H   0  0  0  0  0  0
    4.6305   46.1185   50.5995 H   0  0  0  0  0  0
    3.8893   45.8494   52.6257 C   0  0  0  0  0  0
    4.1125   46.8329   53.0389 H   0  0  0  0  0  0
    2.4618   45.8853   52.0487 C   0  0  0  0  0  0
    2.2580   44.9560   51.5162 H   0  0  0  0  0  0
    2.3786   46.6842   51.3097 H   0  0  0  0  0  0
    1.4017   46.0882   53.1378 C   0  0  0  0  0  0
    0.4045   46.0773   52.6953 H   0  0  0  0  0  0
    1.5317   47.0703   53.5877 H   0  0  0  0  0  0
    1.5085   45.0111   54.2264 C   0  0  0  0  0  0
    1.2776   44.0327   53.8037 H   0  0  0  0  0  0
    0.7651   45.1976   55.0029 H   0  0  0  0  0  0
    2.9176   44.9939   54.8382 C   0  0  0  0  0  0
    2.9898   44.1960   55.5784 H   0  0  0  0  0  0
    3.0962   45.9261   55.3761 H   0  0  0  0  0  0
    3.9927   44.7960   53.7552 C   0  0  0  0  0  0
    4.9829   44.8273   54.2114 H   0  0  0  0  0  0
    3.8865   43.7935   53.3419 H   0  0  0  0  0  0
    6.9183   44.4224   50.1284 N   0  0  0  0  0  0
    7.8772   43.8234   49.4216 C   0  0  0  0  0  0
    7.4562   42.8095   48.6000 N   0  0  0  0  0  0
    8.1630   42.4808   47.9519 H   0  0  0  0  0  0
    6.2827   42.0369   48.5944 C   0  0  0  0  0  0
    5.7488   41.5783   47.3728 C   0  0  0  0  0  0
    6.2483   41.8153   46.4455 H   0  0  0  0  0  0
    4.5599   40.8222   47.3535 C   0  0  0  0  0  0
    4.1574   40.4812   46.4094 H   0  0  0  0  0  0
    3.8958   40.5238   48.5590 C   0  0  0  0  0  0
    2.9882   39.9383   48.5444 H   0  0  0  0  0  0
    4.4313   40.9575   49.7844 C   0  0  0  0  0  0
    3.9293   40.7189   50.7110 H   0  0  0  0  0  0
    5.6276   41.6968   49.7998 C   0  0  0  0  0  0
    6.0349   42.0094   50.7503 H   0  0  0  0  0  0
    9.1940   44.0262   49.4645 N   0  0  0  0  0  0
    9.4934   44.9419   50.4311 C   0  0  0  0  0  0
   10.7207   45.4214   50.8051 N   0  0  0  0  0  0
   11.6359   45.2232   50.3892 H   0  0  0  0  0  0
  1  2  1  0  0  0
  2 44  1  0  0  0
  2  3  2  0  0  0
  3  4  1  0  0  0
  4 43  1  0  0  0
  4  5  2  0  0  0
  5  6  1  0  0  0
  5 27  1  0  0  0
  6  7  1  0  0  0
  7  8  1  0  0  0
  7  9  1  0  0  0
  7 10  1  0  0  0
 10 24  1  0  0  0
 10 11  1  0  0  0
 10 12  1  0  0  0
 12 13  1  0  0  0
 12 14  1  0  0  0
 12 15  1  0  0  0
 15 16  1  0  0  0
 15 17  1  0  0  0
 15 18  1  0  0  0
 18 19  1  0  0  0
 18 20  1  0  0  0
 18 21  1  0  0  0
 21 22  1  0  0  0
 21 23  1  0  0  0
 21 24  1  0  0  0
 24 25  1  0  0  0
 24 26  1  0  0  0
 27 28  2  0  0  0
 28 29  1  0  0  0
 28 42  1  0  0  0
 29 30  1  0  0  0
 29 31  1  0  0  0
 31 40  1  0  0  0
 31 32  2  0  0  0
 32 33  1  0  0  0
 32 34  1  0  0  0
 34 35  1  0  0  0
 34 36  2  0  0  0
 36 37  1  0  0  0
 36 38  1  0  0  0
 38 39  1  0  0  0
 38 40  2  0  0  0
 40 41  1  0  0  0
 42 43  2  0  0  0
 43 44  1  0  0  0
 44 45  1  0  0  0
M  END
> <s_m_source_file>
ligprep_cdk2.smi

> <i_m_source_file_index>
2

> <i_lp_mmshare_version>
53161

> <i_f3d_flags>
0

> <s_epik_input>
W2NIXTFbY0hdW2NIXVtjSF1bY0hdYzFbTkhdYyhuYyhjMjMpW25IXVtjSF1uMiluYzNPW0NIMl1bQ0hdNFtDSDJdW0NIMl1bQ0gyXVtDSDJdW0NIMl00

> <s_epik_cmdline>
J2VwaWtfcHl0aG9uJywgJy1waHQnLCAnMC4wJywgJy1waCcsICc3LjQnLCAnLXRuJywgJzgnLCAnLW1hJywgJzUwMCcsICctaW1hZScsICc8aW5maWxlLm1hZT4nLCAnLW9tYWUnLCAnPG91dGZpbGUubWFlPic=

> <r_lp_tautomer_probability>
1

> <r_epik_Ionization_Penalty>
  0.0272

> <r_epik_Ionization_Penalty_Charging>
  0.0000

> <r_epik_Ionization_Penalty_Neutral>
  0.0272

> <r_epik_State_Penalty>
 -0.0000

> <r_epik_Charging_Adjusted_Penalty>
0

> <i_epik_Tot_Q>
0

> <i_epik_Tot_abs_Q>
0

> <s_lp_Force_Field>
S-OPLS

> <r_lp_Energy>
26.3363

> <b_lp_Chiralities_Consistent>
1

> <s_lp_Variant>
lig_1h1q-1

> <s_i_glide_gridfile>
glide-grid_CDK2-1H1Q

> <i_i_glide_lignum>
2

> <i_i_glide_rotatable_bonds>
5

> <r_i_docking_score>
-10.2469978615511

> <r_i_glide_ligand_efficiency>
-0.426958244231294

> <r_i_glide_ligand_efficiency_sa>
-1.23156068725892

> <r_i_glide_ligand_efficiency_ln>
-2.45257679236213

> <r_i_glide_gscore>
-10.2469978615511

> <r_i_glide_lipo>
-2.55296047751392

> <r_i_glide_hbond>
-0.957828174732701

> <r_i_glide_metal>
-0

> <r_i_glide_rewards>
-3.47449116480792

> <r_i_glide_evdw>
-41.0056190490723

> <r_i_glide_ecoul>
-12.2513809204102

> <r_i_glide_erotb>
0.626270046018621

> <r_i_glide_esite>
0

> <r_i_glide_emodel>
-88.1301773032263

> <r_i_glide_energy>
-53.2569999694824

> <r_i_glide_einternal>
-1.73649794987796e-07

> <i_i_glide_confnum>
4

> <i_i_glide_posenum>
2

> <r_i_glide_eff_state_penalty>
-0

> <r_i_glide_rmsd>
0.101366868012306

> <s_glide_core_constrain_type>
snapped_core_restrain

$$$$
lig_21
                    3D
 Schrodinger Suite 2022-3.
 49 52  0  0  1  0            999 V2000
   11.3172   46.8950   52.2199 H   0  0  0  0  0  0
   10.5050   46.3180   51.7889 C   0  0  0  0  0  0
    9.2352   46.5368   52.1190 N   0  0  0  0  0  0
    8.5807   45.6510   51.2691 C   0  0  0  0  0  0
    7.2220   45.3274   51.0726 C   0  0  0  0  0  0
    6.2095   45.8788   51.8359 O   0  0  0  0  0  0
    4.8777   45.5629   51.4649 C   0  0  0  0  0  0
    4.7270   44.5152   51.1935 H   0  0  0  0  0  0
    4.6526   46.1450   50.5689 H   0  0  0  0  0  0
    3.8864   45.8626   52.5974 C   0  0  0  0  0  0
    4.0937   46.8508   53.0116 H   0  0  0  0  0  0
    2.4598   45.8985   52.0136 C   0  0  0  0  0  0
    2.2648   44.9580   51.4890 H   0  0  0  0  0  0
    2.3843   46.6993   51.2683 H   0  0  0  0  0  0
    1.3962   46.1074   53.0986 C   0  0  0  0  0  0
    0.4061   46.0924   52.6422 H   0  0  0  0  0  0
    1.5280   47.0917   53.5439 H   0  0  0  0  0  0
    1.4976   45.0308   54.1838 C   0  0  0  0  0  0
    1.2724   44.0532   53.7600 H   0  0  0  0  0  0
    0.7538   45.2127   54.9589 H   0  0  0  0  0  0
    2.9080   45.0109   54.8031 C   0  0  0  0  0  0
    2.9650   44.2123   55.5502 H   0  0  0  0  0  0
    3.0914   45.9429   55.3415 H   0  0  0  0  0  0
    3.9895   44.8140   53.7298 C   0  0  0  0  0  0
    4.9746   44.8496   54.1936 H   0  0  0  0  0  0
    3.8803   43.8142   53.3085 H   0  0  0  0  0  0
    6.9119   44.4129   50.1169 N   0  0  0  0  0  0
    7.8825   43.8226   49.4218 C   0  0  0  0  0  0
    7.4812   42.8000   48.6103 N   0  0  0  0  0  0
    8.1933   42.4474   47.9828 H   0  0  0  0  0  0
    6.3095   42.0249   48.5916 C   0  0  0  0  0  0
    5.6560   41.6800   49.7999 C   0  0  0  0  0  0
    6.0710   41.9852   50.7496 H   0  0  0  0  0  0
    4.4595   40.9401   49.7809 C   0  0  0  0  0  0
    3.9613   40.7004   50.7087 H   0  0  0  0  0  0
    3.9177   40.5249   48.5522 C   0  0  0  0  0  0
    2.9996   39.9601   48.5442 H   0  0  0  0  0  0
    4.5614   40.8296   47.3373 C   0  0  0  0  0  0
    3.9493   40.3907   46.1823 O   0  0  0  0  0  0
    4.5812   40.6658   44.9434 C   0  0  0  0  0  0
    3.9845   40.2622   44.1242 H   0  0  0  0  0  0
    4.6821   41.7358   44.7702 H   0  0  0  0  0  0
    5.5664   40.1999   44.8916 H   0  0  0  0  0  0
    5.7704   41.5752   47.3692 C   0  0  0  0  0  0
    6.3016   41.8402   46.4696 H   0  0  0  0  0  0
    9.2033   44.0265   49.4805 N   0  0  0  0  0  0
    9.4955   44.9455   50.4434 C   0  0  0  0  0  0
   10.7197   45.4110   50.8287 N   0  0  0  0  0  0
   11.6330   45.1975   50.4175 H   0  0  0  0  0  0
  1  2  1  0  0  0
  2 48  1  0  0  0
  2  3  2  0  0  0
  3  4  1  0  0  0
  4 47  1  0  0  0
  4  5  2  0  0  0
  5  6  1  0  0  0
  5 27  1  0  0  0
  6  7  1  0  0  0
  7  8  1  0  0  0
  7  9  1  0  0  0
  7 10  1  0  0  0
 10 24  1  0  0  0
 10 11  1  0  0  0
 10 12  1  0  0  0
 12 13  1  0  0  0
 12 14  1  0  0  0
 12 15  1  0  0  0
 15 16  1  0  0  0
 15 17  1  0  0  0
 15 18  1  0  0  0
 18 19  1  0  0  0
 18 20  1  0  0  0
 18 21  1  0  0  0
 21 22  1  0  0  0
 21 23  1  0  0  0
 21 24  1  0  0  0
 24 25  1  0  0  0
 24 26  1  0  0  0
 27 28  2  0  0  0
 28 29  1  0  0  0
 28 46  1  0  0  0
 29 30  1  0  0  0
 29 31  1  0  0  0
 31 44  1  0  0  0
 31 32  2  0  0  0
 32 33  1  0  0  0
 32 34  1  0  0  0
 34 35  1  0  0  0
 34 36  2  0  0  0
 36 37  1  0  0  0
 36 38  1  0  0  0
 38 39  1  0  0  0
 38 44  2  0  0  0
 39 40  1  0  0  0
 40 41  1  0  0  0
 40 42  1  0  0  0
 40 43  1  0  0  0
 44 45  1  0  0  0
 46 47  2  0  0  0
 47 48  1  0  0  0
 48 49  1  0  0  0
M  END
> <s_m_source_file>
ligprep_cdk2.smi

> <i_m_source_file_index>
9

> <i_lp_mmshare_version>
53161

> <i_f3d_flags>
0

> <s_epik_input>
W0NIM11PYyhbY0hdMSlbY0hdW2NIXVtjSF1jMVtOSF1jKG5jKGMyMylbbkhdW2NIXW4yKW5jM09bQ0gyXVtDSF00W0NIMl1bQ0gyXVtDSDJdW0NIMl1bQ0gyXTQ=

> <s_epik_cmdline>
J2VwaWtfcHl0aG9uJywgJy1waHQnLCAnMC4wJywgJy1waCcsICc3LjQnLCAnLXRuJywgJzgnLCAnLW1hJywgJzUwMCcsICctaW1hZScsICc8aW5maWxlLm1hZT4nLCAnLW9tYWUnLCAnPG91dGZpbGUubWFlPic=

> <r_lp_tautomer_probability>
1

> <r_epik_Ionization_Penalty>
  0.0272

> <r_epik_Ionization_Penalty_Charging>
  0.0000

> <r_epik_Ionization_Penalty_Neutral>
  0.0272

> <r_epik_State_Penalty>
 -0.0000

> <r_epik_Charging_Adjusted_Penalty>
0

> <i_epik_Tot_Q>
0

> <i_epik_Tot_abs_Q>
0

> <s_lp_Force_Field>
S-OPLS

> <r_lp_Energy>
29.8067

> <b_lp_Chiralities_Consistent>
1

> <s_lp_Variant>
lig_21-1

> <s_i_glide_gridfile>
glide-grid_CDK2-1H1Q

> <i_i_glide_lignum>
9

> <i_i_glide_rotatable_bonds>
6

> <r_i_docking_score>
-10.2304151826599

> <r_i_glide_ligand_efficiency>
-0.393477507025382

> <r_i_glide_ligand_efficiency_sa>
-1.16567556630347

> <r_i_glide_ligand_efficiency_ln>
-2.40257943691748

> <r_i_glide_gscore>
-10.2304151826599

> <r_i_glide_lipo>
-2.59386961792569

> <r_i_glide_hbond>
-0.967153255969052

> <r_i_glide_metal>
-0

> <r_i_glide_rewards>
-3.26689711660694

> <r_i_glide_evdw>
-43.579158782959

> <r_i_glide_ecoul>
-12.4378261566162

> <r_i_glide_erotb>
0.642136670482126

> <r_i_glide_esite>
0

> <r_i_glide_emodel>
-87.8839453288621

> <r_i_glide_energy>
-56.0169849395752

> <r_i_glide_einternal>
0.00290963053703308

> <i_i_glide_confnum>
2

> <i_i_glide_posenum>
4

> <r_i_glide_eff_state_penalty>
-0

> <r_i_glide_rmsd>
0.0984233927159427

> <s_glide_core_constrain_type>
snapped_core_restrain

$$$$
lig_22
                    3D
 Schrodinger Suite 2022-3.
 49 52  0  0  1  0            999 V2000
   11.3475   46.8371   52.2222 H   0  0  0  0  0  0
   10.5197   46.2989   51.7808 C   0  0  0  0  0  0
    9.2509   46.5354   52.1306 N   0  0  0  0  0  0
    8.5878   45.6637   51.2657 C   0  0  0  0  0  0
    7.2284   45.3327   51.0867 C   0  0  0  0  0  0
    6.2322   45.8589   51.8705 O   0  0  0  0  0  0
    4.8879   45.5813   51.4789 C   0  0  0  0  0  0
    4.7216   44.5459   51.1895 H   0  0  0  0  0  0
    4.6911   46.1956   50.5923 H   0  0  0  0  0  0
    3.8961   45.8736   52.6187 C   0  0  0  0  0  0
    4.0983   46.8554   53.0491 H   0  0  0  0  0  0
    2.4690   45.9125   52.0491 C   0  0  0  0  0  0
    2.2645   44.9836   51.5201 H   0  0  0  0  0  0
    2.3864   46.7181   51.3212 H   0  0  0  0  0  0
    1.4046   46.1066   53.1367 C   0  0  0  0  0  0
    0.4110   46.0900   52.6955 H   0  0  0  0  0  0
    1.5286   47.0913   53.6032 H   0  0  0  0  0  0
    1.5168   45.0182   54.2221 C   0  0  0  0  0  0
    1.2800   44.0471   53.7852 H   0  0  0  0  0  0
    0.7799   45.2022   55.0087 H   0  0  0  0  0  0
    2.9272   44.9897   54.8247 C   0  0  0  0  0  0
    3.0011   44.1839   55.5590 H   0  0  0  0  0  0
    3.1168   45.9176   55.3682 H   0  0  0  0  0  0
    3.9995   44.8059   53.7390 C   0  0  0  0  0  0
    4.9911   44.8276   54.1934 H   0  0  0  0  0  0
    3.8876   43.8129   53.3111 H   0  0  0  0  0  0
    6.9156   44.4213   50.1301 N   0  0  0  0  0  0
    7.8660   43.8383   49.4139 C   0  0  0  0  0  0
    7.4407   42.8247   48.5931 N   0  0  0  0  0  0
    8.1279   42.4956   47.9234 H   0  0  0  0  0  0
    6.2829   42.0364   48.5940 C   0  0  0  0  0  0
    5.6606   41.6772   49.8140 C   0  0  0  0  0  0
    6.0971   41.9773   50.7558 H   0  0  0  0  0  0
    4.4652   40.9282   49.8218 C   0  0  0  0  0  0
    3.9940   40.6853   50.7657 H   0  0  0  0  0  0
    3.8900   40.5056   48.6096 C   0  0  0  0  0  0
    2.9647   39.9423   48.6313 H   0  0  0  0  0  0
    4.5183   40.8403   47.3842 C   0  0  0  0  0  0
    3.7357   40.3203   45.8885 S   0  0  0  0  0  0
    4.4689   41.2462   44.5106 C   0  0  0  0  0  0
    3.9935   40.9495   43.5731 H   0  0  0  0  0  0
    4.3273   42.3205   44.6469 H   0  0  0  0  0  0
    5.5349   41.0376   44.4197 H   0  0  0  0  0  0
    5.7093   41.6026   47.3781 C   0  0  0  0  0  0
    6.1972   41.8584   46.4518 H   0  0  0  0  0  0
    9.1797   44.0475   49.4395 N   0  0  0  0  0  0
    9.4868   44.9647   50.4102 C   0  0  0  0  0  0
   10.7206   45.4196   50.7970 N   0  0  0  0  0  0
   11.6331   45.2156   50.3662 H   0  0  0  0  0  0
  1  2  1  0  0  0
  2 48  1  0  0  0
  2  3  2  0  0  0
  3  4  1  0  0  0
  4 47  1  0  0  0
  4  5  2  0  0  0
  5  6  1  0  0  0
  5 27  1  0  0  0
  6  7  1  0  0  0
  7  8  1  0  0  0
  7  9  1  0  0  0
  7 10  1  0  0  0
 10 24  1  0  0  0
 10 11  1  0  0  0
 10 12  1  0  0  0
 12 13  1  0  0  0
 12 14  1  0  0  0
 12 15  1  0  0  0
 15 16  1  0  0  0
 15 17  1  0  0  0
 15 18  1  0  0  0
 18 19  1  0  0  0
 18 20  1  0  0  0
 18 21  1  0  0  0
 21 22  1  0  0  0
 21 23  1  0  0  0
 21 24  1  0  0  0
 24 25  1  0  0  0
 24 26  1  0  0  0
 27 28  2  0  0  0
 28 29  1  0  0  0
 28 46  1  0  0  0
 29 30  1  0  0  0
 29 31  1  0  0  0
 31 44  1  0  0  0
 31 32  2  0  0  0
 32 33  1  0  0  0
 32 34  1  0  0  0
 34 35  1  0  0  0
 34 36  2  0  0  0
 36 37  1  0  0  0
 36 38  1  0  0  0
 38 39  1  0  0  0
 38 44  2  0  0  0
 39 40  1  0  0  0
 40 41  1  0  0  0
 40 42  1  0  0  0
 40 43  1  0  0  0
 44 45  1  0  0  0
 46 47  2  0  0  0
 47 48  1  0  0  0
 48 49  1  0  0  0
M  END
> <s_m_source_file>
ligprep_cdk2.smi

> <i_m_source_file_index>
10

> <i_lp_mmshare_version>
53161

> <i_f3d_flags>
0

> <s_epik_input>
W0NIM11TYyhbY0hdMSlbY0hdW2NIXVtjSF1jMVtOSF1jKG5jKGMyMylbbkhdW2NIXW4yKW5jM09bQ0gyXVtDSF00W0NIMl1bQ0gyXVtDSDJdW0NIMl1bQ0gyXTQ=

> <s_epik_cmdline>
J2VwaWtfcHl0aG9uJywgJy1waHQnLCAnMC4wJywgJy1waCcsICc3LjQnLCAnLXRuJywgJzgnLCAnLW1hJywgJzUwMCcsICctaW1hZScsICc8aW5maWxlLm1hZT4nLCAnLW9tYWUnLCAnPG91dGZpbGUubWFlPic=

> <r_lp_tautomer_probability>
1

> <r_epik_Ionization_Penalty>
  0.0272

> <r_epik_Ionization_Penalty_Charging>
  0.0000

> <r_epik_Ionization_Penalty_Neutral>
  0.0272

> <r_epik_State_Penalty>
 -0.0000

> <r_epik_Charging_Adjusted_Penalty>
0

> <i_epik_Tot_Q>
0

> <i_epik_Tot_abs_Q>
0

> <s_lp_Force_Field>
S-OPLS

> <r_lp_Energy>
27.3097

> <b_lp_Chiralities_Consistent>
1

> <s_lp_Variant>
lig_22-1

> <s_i_glide_gridfile>
glide-grid_CDK2-1H1Q

> <i_i_glide_lignum>
10

> <i_i_glide_rotatable_bonds>
6

> <r_i_docking_score>
-10.2239706727689

> <r_i_glide_ligand_efficiency>
-0.393229641260342

> <r_i_glide_ligand_efficiency_sa>
-1.16494126494984

> <r_i_glide_ligand_efficiency_ln>
-2.40106596491573

> <r_i_glide_gscore>
-10.2239706727689

> <r_i_glide_lipo>
-2.56148406388467

> <r_i_glide_hbond>
-0.948122409461999

> <r_i_glide_metal>
-0

> <r_i_glide_rewards>
-3.16331788993782

> <r_i_glide_evdw>
-44.9985237121582

> <r_i_glide_ecoul>
-12.6287651062012

> <r_i_glide_erotb>
0.593194642053685

> <r_i_glide_esite>
0

> <r_i_glide_emodel>
-88.6736099298465

> <r_i_glide_energy>
-57.6272888183594

> <r_i_glide_einternal>
0.209632262587547

> <i_i_glide_confnum>
3

> <i_i_glide_posenum>
2

> <r_i_glide_eff_state_penalty>
-0

> <r_i_glide_rmsd>
0.104219157817719

> <s_glide_core_constrain_type>
snapped_core_restrain

$$$$
lig_1h1r
                    3D
 Schrodinger Suite 2022-3.
 45 48  0  0  1  0            999 V2000
    3.9959   40.7294   50.7571 H   0  0  0  0  0  0
    4.4780   40.9597   49.8176 C   0  0  0  0  0  0
    5.6776   41.6920   49.8112 C   0  0  0  0  0  0
    6.3143   42.0298   48.5972 C   0  0  0  0  0  0
    5.7612   41.5712   47.3857 C   0  0  0  0  0  0
    4.5617   40.8277   47.3884 C   0  0  0  0  0  0
    3.9129   40.5322   48.6039 C   0  0  0  0  0  0
    2.9920   39.9722   48.6204 H   0  0  0  0  0  0
    3.8636   40.3091   45.9000 Cl  0  0  0  0  0  0
    6.2479   41.8039   46.4515 H   0  0  0  0  0  0
    7.4813   42.8105   48.5927 N   0  0  0  0  0  0
    8.2049   42.4806   47.9625 H   0  0  0  0  0  0
    7.8827   43.8437   49.3944 C   0  0  0  0  0  0
    9.1982   44.0481   49.4416 N   0  0  0  0  0  0
    9.4932   44.9613   50.4112 C   0  0  0  0  0  0
    8.5853   45.6632   51.2530 C   0  0  0  0  0  0
    7.2272   45.3412   51.0558 C   0  0  0  0  0  0
    6.9203   44.4372   50.0974 N   0  0  0  0  0  0
    6.2253   45.8630   51.8429 O   0  0  0  0  0  0
    4.8867   45.5227   51.4821 C   0  0  0  0  0  0
    4.7604   44.4687   51.2244 H   0  0  0  0  0  0
    4.6431   46.0831   50.5782 H   0  0  0  0  0  0
    3.8979   45.8231   52.6172 C   0  0  0  0  0  0
    2.4794   45.8843   52.0270 C   0  0  0  0  0  0
    1.4120   46.0828   53.1083 C   0  0  0  0  0  0
    1.4939   44.9822   54.1749 C   0  0  0  0  0  0
    2.8960   44.9319   54.8027 C   0  0  0  0  0  0
    3.9815   44.7468   53.7281 C   0  0  0  0  0  0
    4.9664   44.7594   54.1972 H   0  0  0  0  0  0
    3.8703   43.7524   53.2920 H   0  0  0  0  0  0
    2.9468   44.1177   55.5278 H   0  0  0  0  0  0
    3.0843   45.8508   55.3596 H   0  0  0  0  0  0
    1.2580   44.0166   53.7244 H   0  0  0  0  0  0
    0.7470   45.1585   54.9487 H   0  0  0  0  0  0
    0.4240   46.0904   52.6483 H   0  0  0  0  0  0
    1.5436   47.0572   53.5784 H   0  0  0  0  0  0
    2.2751   44.9612   51.4813 H   0  0  0  0  0  0
    2.4204   46.6998   51.3038 H   0  0  0  0  0  0
    4.1170   46.8004   53.0512 H   0  0  0  0  0  0
    9.2443   46.5196   52.1287 N   0  0  0  0  0  0
   10.5125   46.3015   51.7887 C   0  0  0  0  0  0
   10.7220   45.4058   50.8179 N   0  0  0  0  0  0
   11.6390   45.1746   50.4301 H   0  0  0  0  0  0
   11.3451   46.8353   52.2252 H   0  0  0  0  0  0
    6.1022   42.0101   50.7500 H   0  0  0  0  0  0
  1  2  1  0  0  0
  2  7  1  0  0  0
  2  3  2  0  0  0
  3  4  1  0  0  0
  3 45  1  0  0  0
  4  5  2  0  0  0
  4 11  1  0  0  0
  5  6  1  0  0  0
  5 10  1  0  0  0
  6  7  2  0  0  0
  6  9  1  0  0  0
  7  8  1  0  0  0
 11 12  1  0  0  0
 11 13  1  0  0  0
 13 18  1  0  0  0
 13 14  2  0  0  0
 14 15  1  0  0  0
 15 42  1  0  0  0
 15 16  2  0  0  0
 16 17  1  0  0  0
 16 40  1  0  0  0
 17 18  2  0  0  0
 17 19  1  0  0  0
 19 20  1  0  0  0
 20 21  1  0  0  0
 20 22  1  0  0  0
 20 23  1  0  0  0
 23 28  1  0  0  0
 23 24  1  0  0  0
 23 39  1  0  0  0
 24 25  1  0  0  0
 24 37  1  0  0  0
 24 38  1  0  0  0
 25 26  1  0  0  0
 25 35  1  0  0  0
 25 36  1  0  0  0
 26 27  1  0  0  0
 26 33  1  0  0  0
 26 34  1  0  0  0
 27 28  1  0  0  0
 27 31  1  0  0  0
 27 32  1  0  0  0
 28 29  1  0  0  0
 28 30  1  0  0  0
 40 41  2  0  0  0
 41 42  1  0  0  0
 41 44  1  0  0  0
 42 43  1  0  0  0
M  END
> <s_m_source_file>
ligprep_cdk2.smi

> <i_m_source_file_index>
3

> <i_lp_mmshare_version>
53161

> <i_f3d_flags>
0

> <s_epik_input>
W2NIXTFjKENsKVtjSF1bY0hdW2NIXWMxW05IXWMobjIpbmMoYyhjMjMpbltjSF1bbkhdMylPW0NIMl1bQ0hdNFtDSDJdW0NIMl1bQ0gyXVtDSDJdW0NIMl00

> <s_epik_cmdline>
J2VwaWtfcHl0aG9uJywgJy1waHQnLCAnMC4wJywgJy1waCcsICc3LjQnLCAnLXRuJywgJzgnLCAnLW1hJywgJzUwMCcsICctaW1hZScsICc8aW5maWxlLm1hZT4nLCAnLW9tYWUnLCAnPG91dGZpbGUubWFlPic=

> <r_lp_tautomer_probability>
1

> <r_epik_Ionization_Penalty>
  0.0272

> <r_epik_Ionization_Penalty_Charging>
  0.0000

> <r_epik_Ionization_Penalty_Neutral>
  0.0272

> <r_epik_State_Penalty>
 -0.0000

> <r_epik_Charging_Adjusted_Penalty>
0

> <i_epik_Tot_Q>
0

> <i_epik_Tot_abs_Q>
0

> <s_lp_Force_Field>
S-OPLS

> <r_lp_Energy>
25.9145

> <b_lp_Chiralities_Consistent>
1

> <s_lp_Variant>
lig_1h1r-1

> <s_i_glide_gridfile>
glide-grid_CDK2-1H1Q

> <i_i_glide_lignum>
3

> <i_i_glide_rotatable_bonds>
5

> <r_i_docking_score>
-10.1668593992022

> <r_i_glide_ligand_efficiency>
-0.406674375968089

> <r_i_glide_ligand_efficiency_sa>
-1.18912308773146

> <r_i_glide_ligand_efficiency_ln>
-2.40985035380126

> <r_i_glide_gscore>
-10.1668593992022

> <r_i_glide_lipo>
-2.55513470481875

> <r_i_glide_hbond>
-0.955538904462345

> <r_i_glide_metal>
-0

> <r_i_glide_rewards>
-3.24443832091053

> <r_i_glide_evdw>
-43.0323677062988

> <r_i_glide_ecoul>
-11.8902282714844

> <r_i_glide_erotb>
0.523405157026995

> <r_i_glide_esite>
0

> <r_i_glide_emodel>
-92.1619770783694

> <r_i_glide_energy>
-54.9225959777832

> <r_i_glide_einternal>
7.57696057007706e-08

> <i_i_glide_confnum>
1

> <i_i_glide_posenum>
1

> <r_i_glide_eff_state_penalty>
-0

> <r_i_glide_rmsd>
0.0825849145451436

> <s_glide_core_constrain_type>
snapped_core_restrain

$$$$
lig_17
                    3D
 Schrodinger Suite 2022-3.
 45 48  0  0  1  0            999 V2000
   11.3246   46.8972   52.2212 H   0  0  0  0  0  0
   10.5122   46.3274   51.7890 C   0  0  0  0  0  0
    9.2422   46.5332   52.1263 N   0  0  0  0  0  0
    8.5848   45.6591   51.2688 C   0  0  0  0  0  0
    7.2251   45.3365   51.0686 C   0  0  0  0  0  0
    6.2163   45.8745   51.8394 O   0  0  0  0  0  0
    4.8772   45.5634   51.4630 C   0  0  0  0  0  0
    4.7349   44.5155   51.1894 H   0  0  0  0  0  0
    4.6548   46.1538   50.5721 H   0  0  0  0  0  0
    3.8887   45.8624   52.6008 C   0  0  0  0  0  0
    4.1014   46.8450   53.0254 H   0  0  0  0  0  0
    2.4595   45.8950   52.0258 C   0  0  0  0  0  0
    2.2576   44.9565   51.5074 H   0  0  0  0  0  0
    2.3735   46.6887   51.2822 H   0  0  0  0  0  0
    1.3995   46.1047   53.1113 C   0  0  0  0  0  0
    0.4059   46.0922   52.6606 H   0  0  0  0  0  0
    1.5303   47.0919   53.5550 H   0  0  0  0  0  0
    1.5067   45.0271   54.2014 C   0  0  0  0  0  0
    1.2758   44.0472   53.7794 H   0  0  0  0  0  0
    0.7665   45.2154   54.9798 H   0  0  0  0  0  0
    2.9173   45.0041   54.8119 C   0  0  0  0  0  0
    2.9893   44.2064   55.5539 H   0  0  0  0  0  0
    3.0983   45.9386   55.3454 H   0  0  0  0  0  0
    3.9920   44.8055   53.7294 C   0  0  0  0  0  0
    4.9814   44.8283   54.1888 H   0  0  0  0  0  0
    3.8828   43.8025   53.3143 H   0  0  0  0  0  0
    6.9199   44.4277   50.1165 N   0  0  0  0  0  0
    7.8849   43.8255   49.4204 C   0  0  0  0  0  0
    7.4764   42.7951   48.6144 N   0  0  0  0  0  0
    8.1910   42.4498   47.9807 H   0  0  0  0  0  0
    6.3039   42.0250   48.6096 C   0  0  0  0  0  0
    5.6621   41.6826   49.8208 C   0  0  0  0  0  0
    6.0787   41.9930   50.7659 H   0  0  0  0  0  0
    4.4628   40.9483   49.8177 C   0  0  0  0  0  0
    3.9647   40.7190   50.7502 H   0  0  0  0  0  0
    3.9153   40.5177   48.5966 C   0  0  0  0  0  0
    3.0046   39.9408   48.6052 H   0  0  0  0  0  0
    4.5649   40.8262   47.3835 C   0  0  0  0  0  0
    3.8038   40.2739   45.7292 Br  0  0  0  0  0  0
    5.7615   41.5738   47.3904 C   0  0  0  0  0  0
    6.2501   41.8137   46.4588 H   0  0  0  0  0  0
    9.2020   44.0251   49.4782 N   0  0  0  0  0  0
    9.4983   44.9498   50.4373 C   0  0  0  0  0  0
   10.7271   45.4201   50.8263 N   0  0  0  0  0  0
   11.6385   45.2084   50.4116 H   0  0  0  0  0  0
  1  2  1  0  0  0
  2 44  1  0  0  0
  2  3  2  0  0  0
  3  4  1  0  0  0
  4 43  1  0  0  0
  4  5  2  0  0  0
  5  6  1  0  0  0
  5 27  1  0  0  0
  6  7  1  0  0  0
  7  8  1  0  0  0
  7  9  1  0  0  0
  7 10  1  0  0  0
 10 24  1  0  0  0
 10 11  1  0  0  0
 10 12  1  0  0  0
 12 13  1  0  0  0
 12 14  1  0  0  0
 12 15  1  0  0  0
 15 16  1  0  0  0
 15 17  1  0  0  0
 15 18  1  0  0  0
 18 19  1  0  0  0
 18 20  1  0  0  0
 18 21  1  0  0  0
 21 22  1  0  0  0
 21 23  1  0  0  0
 21 24  1  0  0  0
 24 25  1  0  0  0
 24 26  1  0  0  0
 27 28  2  0  0  0
 28 29  1  0  0  0
 28 42  1  0  0  0
 29 30  1  0  0  0
 29 31  1  0  0  0
 31 40  1  0  0  0
 31 32  2  0  0  0
 32 33  1  0  0  0
 32 34  1  0  0  0
 34 35  1  0  0  0
 34 36  2  0  0  0
 36 37  1  0  0  0
 36 38  1  0  0  0
 38 39  1  0  0  0
 38 40  2  0  0  0
 40 41  1  0  0  0
 42 43  2  0  0  0
 43 44  1  0  0  0
 44 45  1  0  0  0
M  END
> <s_m_source_file>
ligprep_cdk2.smi

> <i_m_source_file_index>
1

> <i_lp_mmshare_version>
53161

> <i_f3d_flags>
0

> <s_epik_input>
QnJjKFtjSF0xKVtjSF1bY0hdW2NIXWMxW05IXWMobmMoYzIzKVtuSF1bY0hdbjIpbmMzT1tDSDJdW0NIXTRbQ0gyXVtDSDJdW0NIMl1bQ0gyXVtDSDJdNA==

> <s_epik_cmdline>
J2VwaWtfcHl0aG9uJywgJy1waHQnLCAnMC4wJywgJy1waCcsICc3LjQnLCAnLXRuJywgJzgnLCAnLW1hJywgJzUwMCcsICctaW1hZScsICc8aW5maWxlLm1hZT4nLCAnLW9tYWUnLCAnPG91dGZpbGUubWFlPic=

> <r_lp_tautomer_probability>
1

> <r_epik_Ionization_Penalty>
  0.0272

> <r_epik_Ionization_Penalty_Charging>
  0.0000

> <r_epik_Ionization_Penalty_Neutral>
  0.0272

> <r_epik_State_Penalty>
 -0.0000

> <r_epik_Charging_Adjusted_Penalty>
0

> <i_epik_Tot_Q>
0

> <i_epik_Tot_abs_Q>
0

> <s_lp_Force_Field>
S-OPLS

> <r_lp_Energy>
26.2687

> <b_lp_Chiralities_Consistent>
1

> <s_lp_Variant>
lig_17-1

> <s_i_glide_gridfile>
glide-grid_CDK2-1H1Q

> <i_i_glide_lignum>
1

> <i_i_glide_rotatable_bonds>
5

> <r_i_docking_score>
-10.0205978375741

> <r_i_glide_ligand_efficiency>
-0.400823913502965

> <r_i_glide_ligand_efficiency_sa>
-1.17201623172504

> <r_i_glide_ligand_efficiency_ln>
-2.3751819805901

> <r_i_glide_gscore>
-10.0205978375741

> <r_i_glide_lipo>
-2.57189432672489

> <r_i_glide_hbond>
-0.965265137493959

> <r_i_glide_metal>
-0

> <r_i_glide_rewards>
-2.92788766674914

> <r_i_glide_evdw>
-43.537483215332

> <r_i_glide_ecoul>
-12.0203037261963

> <r_i_glide_erotb>
0.424369013089904

> <r_i_glide_esite>
0

> <r_i_glide_emodel>
-92.397192566576

> <r_i_glide_energy>
-55.5577869415283

> <r_i_glide_einternal>
-2.52472631245837e-07

> <i_i_glide_confnum>
1

> <i_i_glide_posenum>
1

> <r_i_glide_eff_state_penalty>
-0

> <r_i_glide_rmsd>
0.0965875610361255

> <s_glide_core_constrain_type>
snapped_core_restrain

$$$$
lig_1oiy
                    3D
 Schrodinger Suite 2022-3.
 49 52  0  0  1  0            999 V2000
   11.3554   46.9170   52.2323 H   0  0  0  0  0  0
   10.5443   46.3483   51.8074 C   0  0  0  0  0  0
    9.2716   46.5493   52.1368 N   0  0  0  0  0  0
    8.6319   45.6753   51.2677 C   0  0  0  0  0  0
    7.2762   45.3573   51.0500 C   0  0  0  0  0  0
    6.2585   45.8789   51.8241 O   0  0  0  0  0  0
    4.9238   45.5189   51.4750 C   0  0  0  0  0  0
    4.6577   46.0893   50.5838 H   0  0  0  0  0  0
    4.8288   44.4617   51.2230 H   0  0  0  0  0  0
    3.9300   45.8102   52.6088 C   0  0  0  0  0  0
    4.1723   46.7813   53.0434 H   0  0  0  0  0  0
    2.5107   45.8812   52.0116 C   0  0  0  0  0  0
    2.4554   46.6938   51.2859 H   0  0  0  0  0  0
    2.3023   44.9634   51.4584 H   0  0  0  0  0  0
    1.4345   46.0826   53.0835 C   0  0  0  0  0  0
    1.5662   47.0588   53.5502 H   0  0  0  0  0  0
    0.4476   46.0895   52.6197 H   0  0  0  0  0  0
    1.5069   44.9867   54.1552 C   0  0  0  0  0  0
    0.7536   45.1710   54.9227 H   0  0  0  0  0  0
    1.2658   44.0200   53.7102 H   0  0  0  0  0  0
    2.9054   44.9319   54.7902 C   0  0  0  0  0  0
    3.0906   45.8507   55.3491 H   0  0  0  0  0  0
    2.9465   44.1196   55.5171 H   0  0  0  0  0  0
    3.9991   44.7377   53.7230 C   0  0  0  0  0  0
    3.8884   43.7430   53.2879 H   0  0  0  0  0  0
    4.9790   44.7505   54.2010 H   0  0  0  0  0  0
    6.9941   44.4617   50.0755 N   0  0  0  0  0  0
    7.9786   43.8554   49.4034 C   0  0  0  0  0  0
    7.5998   42.8266   48.5822 N   0  0  0  0  0  0
    8.3174   42.4855   47.9524 H   0  0  0  0  0  0
    6.4495   42.0506   48.5733 C   0  0  0  0  0  0
    5.8831   41.6264   47.3539 C   0  0  0  0  0  0
    6.3543   41.8813   46.4136 H   0  0  0  0  0  0
    4.6835   40.9227   47.3560 C   0  0  0  0  0  0
    4.2366   40.6513   46.4116 H   0  0  0  0  0  0
    4.0737   40.6315   48.5800 C   0  0  0  0  0  0
    2.8401   40.0263   48.5922 C   0  0  0  0  0  0
    2.2804   40.4259   49.5663 O   0  0  0  0  0  0
    2.4857   39.1806   47.6142 N   0  0  0  0  0  0
    3.1315   39.0063   46.8541 H   0  0  0  0  0  0
    1.6164   38.6687   47.6651 H   0  0  0  0  0  0
    4.6525   41.0174   49.8104 C   0  0  0  0  0  0
    4.2073   40.8027   50.7735 H   0  0  0  0  0  0
    5.8521   41.7121   49.8009 C   0  0  0  0  0  0
    6.2936   42.0111   50.7409 H   0  0  0  0  0  0
    9.2917   44.0449   49.4858 N   0  0  0  0  0  0
    9.5602   44.9654   50.4530 C   0  0  0  0  0  0
   10.7805   45.4261   50.8682 N   0  0  0  0  0  0
   11.6969   45.1925   50.4789 H   0  0  0  0  0  0
  1  2  1  0  0  0
  2 48  1  0  0  0
  2  3  2  0  0  0
  3  4  1  0  0  0
  4 47  1  0  0  0
  4  5  2  0  0  0
  5  6  1  0  0  0
  5 27  1  0  0  0
  6  7  1  0  0  0
  7  8  1  0  0  0
  7  9  1  0  0  0
  7 10  1  0  0  0
 10 24  1  0  0  0
 10 11  1  0  0  0
 10 12  1  0  0  0
 12 13  1  0  0  0
 12 14  1  0  0  0
 12 15  1  0  0  0
 15 16  1  0  0  0
 15 17  1  0  0  0
 15 18  1  0  0  0
 18 19  1  0  0  0
 18 20  1  0  0  0
 18 21  1  0  0  0
 21 22  1  0  0  0
 21 23  1  0  0  0
 21 24  1  0  0  0
 24 25  1  0  0  0
 24 26  1  0  0  0
 27 28  2  0  0  0
 28 29  1  0  0  0
 28 46  1  0  0  0
 29 30  1  0  0  0
 29 31  1  0  0  0
 31 44  1  0  0  0
 31 32  2  0  0  0
 32 33  1  0  0  0
 32 34  1  0  0  0
 34 35  1  0  0  0
 34 36  2  0  0  0
 36 37  1  0  0  0
 36 42  1  0  0  0
 37 38  2  0  0  0
 37 39  1  0  0  0
 39 40  1  0  0  0
 39 41  1  0  0  0
 42 43  1  0  0  0
 42 44  2  0  0  0
 44 45  1  0  0  0
 46 47  2  0  0  0
 47 48  1  0  0  0
 48 49  1  0  0  0
M  END
> <s_m_source_file>
ligprep_cdk2.smi

> <i_m_source_file_index>
7

> <i_lp_mmshare_version>
53161

> <i_f3d_flags>
0

> <s_epik_input>
Tz1DKFtOSDJdKWMoW2NIXVtjSF0xKVtjSF1bY0hdYzFbTkhdYyhuYyhjMjMpW25IXVtjSF1uMiluYzNPW0NIMl1bQ0hdNFtDSDJdW0NIMl1bQ0gyXVtDSDJdW0NIMl00

> <s_epik_cmdline>
J2VwaWtfcHl0aG9uJywgJy1waHQnLCAnMC4wJywgJy1waCcsICc3LjQnLCAnLXRuJywgJzgnLCAnLW1hJywgJzUwMCcsICctaW1hZScsICc8aW5maWxlLm1hZT4nLCAnLW9tYWUnLCAnPG91dGZpbGUubWFlPic=

> <r_lp_tautomer_probability>
1

> <r_epik_Ionization_Penalty>
  0.0272

> <r_epik_Ionization_Penalty_Charging>
  0.0000

> <r_epik_Ionization_Penalty_Neutral>
  0.0272

> <r_epik_State_Penalty>
 -0.0000

> <r_epik_Charging_Adjusted_Penalty>
0

> <i_epik_Tot_Q>
0

> <i_epik_Tot_abs_Q>
0

> <s_lp_Force_Field>
S-OPLS

> <r_lp_Energy>
27.0753

> <b_lp_Chiralities_Consistent>
1

> <s_lp_Variant>
lig_1oiy-1

> <s_i_glide_gridfile>
glide-grid_CDK2-1H1Q

> <i_i_glide_lignum>
7

> <i_i_glide_rotatable_bonds>
6

> <r_i_docking_score>
-9.57723039578961

> <r_i_glide_ligand_efficiency>
-0.354712236881097

> <r_i_glide_ligand_efficiency_sa>
-1.06413670947422

> <r_i_glide_ligand_efficiency_ln>
-2.22942134315674

> <r_i_glide_gscore>
-9.57723039578961

> <r_i_glide_lipo>
-2.64239372857628

> <r_i_glide_hbond>
-1.08379270871727

> <r_i_glide_metal>
-0

> <r_i_glide_rewards>
-3.14091112875223

> <r_i_glide_evdw>
-23.0296382904053

> <r_i_glide_ecoul>
-13.3806486129761

> <r_i_glide_erotb>
0.602095569115044

> <r_i_glide_esite>
-0.153649192392209

> <r_i_glide_emodel>
-92.1097509582283

> <r_i_glide_energy>
-36.4102869033813

> <r_i_glide_einternal>
0.0658817961812019

> <i_i_glide_confnum>
9

> <i_i_glide_posenum>
5

> <r_i_glide_eff_state_penalty>
-0

> <r_i_glide_rmsd>
0.0940418562344462

> <s_glide_core_constrain_type>
snapped_core_restrain

$$$$
