@<TRIPOS>MOLECULE
lig_20
49 52 0 0 0
SMALL
GASTEIGER

@<TRIPOS>ATOM
      1 H001        4.4517   38.4986   46.2155 H       1  UNL         0.2105
      2 O002        3.6305   38.9670   46.0960 O.3     1  UNL        -0.3917
      3 C003        3.9429   40.3438   46.0745 C.3     1  UNL         0.0682
      4 H004        4.6371   40.5203   45.2491 H       1  UNL         0.0615
      5 H005        3.0391   40.9113   45.8530 H       1  UNL         0.0615
      6 C006        4.5384   40.8263   47.3845 C.ar    1  UNL        -0.0206
      7 C007        3.8926   40.5249   48.6031 C.ar    1  UNL        -0.0566
      8 H008        2.9807   39.9419   48.6052 H       1  UNL         0.0627
      9 C009        4.4454   40.9439   49.8225 C.ar    1  UNL        -0.0598
     10 H010        3.9632   40.6930   50.7532 H       1  UNL         0.0624
     11 C011        5.6391   41.6861   49.8208 C.ar    1  UNL        -0.0385
     12 H012        6.0614   41.9993   50.7646 H       1  UNL         0.0645
     13 C013        6.2826   42.0320   48.6078 C.ar    1  UNL         0.0412
     14 N014        7.4439   42.8195   48.6003 N.pl3   1  UNL        -0.3240
     15 H015        8.1623   42.4831   47.9724 H       1  UNL         0.1697
     16 C016        7.8622   43.8290   49.4212 C.ar    1  UNL         0.2321
     17 N017        6.9029   44.4274   50.1220 N.ar    1  UNL        -0.1750
     18 C018        7.2149   45.3363   51.0664 C.ar    1  UNL         0.2468
     19 O019        6.2204   45.8673   51.8555 O.3     1  UNL        -0.4757
     20 C020        4.8749   45.5800   51.4828 C.3     1  UNL         0.0928
     21 H021        4.6429   46.1777   50.5971 H       1  UNL         0.0709
     22 H022        4.7205   44.5423   51.1892 H       1  UNL         0.0709
     23 C023        3.8906   45.8638   52.6222 C.3     1  UNL        -0.0070
     24 H024        4.1062   46.8489   53.0429 H       1  UNL         0.0338
     25 C025        2.4632   45.8951   52.0414 C.3     1  UNL        -0.0472
     26 H026        2.3798   46.7081   51.3192 H       1  UNL         0.0271
     27 H027        2.2683   44.9647   51.5036 H       1  UNL         0.0271
     28 C028        1.3983   46.0719   53.1392 C.3     1  UNL        -0.0529
     29 H029        1.5103   47.0513   53.6030 H       1  UNL         0.0267
     30 H030        0.4038   46.0533   52.6871 H       1  UNL         0.0267
     31 C031        1.5220   44.9764   54.2071 C.3     1  UNL        -0.0533
     32 H032        0.7782   45.1385   54.9909 H       1  UNL         0.0267
     33 H033        1.3076   44.0004   53.7658 H       1  UNL         0.0267
     34 C034        2.9277   44.9723   54.8234 C.3     1  UNL        -0.0529
     35 H035        3.1025   45.9033   55.3658 H       1  UNL         0.0267
     36 H036        3.0098   44.1694   55.5517 H       1  UNL         0.0267
     37 C037        4.0044   44.7947   53.7332 C.3     1  UNL        -0.0472
     38 H038        3.9037   43.7959   53.3063 H       1  UNL         0.0271
     39 H039        4.9939   44.8326   54.1940 H       1  UNL         0.0271
     40 C040        8.5773   45.6593   51.2568 C.ar    1  UNL         0.1696
     41 N041        9.2376   46.5241   52.1243 N.ar    1  UNL        -0.2294
     42 C042       10.5037   46.3017   51.7825 C.ar    1  UNL         0.0946
     43 H043       11.3263   46.8424   52.2217 H       1  UNL         0.1042
     44 N044       10.7133   45.4048   50.8180 N.ar    1  UNL        -0.3290
     45 H045       11.6330   45.1778   50.4299 H       1  UNL         0.1691
     46 C046        9.4825   44.9478   50.4203 C.ar    1  UNL         0.1663
     47 N047        9.1823   44.0284   49.4621 N.ar    1  UNL        -0.1927
     48 C048        5.7300   41.5805   47.3955 C.ar    1  UNL        -0.0330
     49 H049        6.2279   41.8235   46.4695 H       1  UNL         0.0649
@<TRIPOS>BOND
    1     1     2  1
    2     2     3  1
    3     3     4  1
    4     3     5  1
    5     3     6  1
    6     6    48 ar
    7     6     7 ar
    8     7     8  1
    9     7     9 ar
   10     9    10  1
   11     9    11 ar
   12    11    12  1
   13    11    13 ar
   14    13    14  1
   15    13    48 ar
   16    14    15  1
   17    14    16  1
   18    16    47 ar
   19    16    17 ar
   20    17    18 ar
   21    18    19  1
   22    18    40 ar
   23    19    20  1
   24    20    21  1
   25    20    22  1
   26    20    23  1
   27    23    37  1
   28    23    24  1
   29    23    25  1
   30    25    26  1
   31    25    27  1
   32    25    28  1
   33    28    29  1
   34    28    30  1
   35    28    31  1
   36    31    32  1
   37    31    33  1
   38    31    34  1
   39    34    35  1
   40    34    36  1
   41    34    37  1
   42    37    38  1
   43    37    39  1
   44    40    46 ar
   45    40    41 ar
   46    41    42 ar
   47    42    43  1
   48    42    44 ar
   49    44    45  1
   50    44    46 ar
   51    46    47 ar
   52    48    49  1

