@<TRIPOS>MOLECULE
lig_26
49 52 0 0 0
SMALL
GASTEIGER

@<TRIPOS>ATOM
      1 H001       11.3522   46.8262   52.2679 H       1  UNL         0.1042
      2 C002       10.5260   46.3045   51.8194 C.ar    1  UNL         0.0946
      3 N003        9.2557   46.5589   52.1262 N.ar    1  UNL        -0.2294
      4 C004        8.5976   45.6872   51.2631 C.ar    1  UNL         0.1696
      5 C005        7.2242   45.3721   51.0671 C.ar    1  UNL         0.2468
      6 O006        6.2145   45.8903   51.8424 O.3     1  UNL        -0.4757
      7 C007        4.8835   45.5452   51.4858 C.3     1  UNL         0.0928
      8 H008        4.7507   44.4913   51.2346 H       1  UNL         0.0709
      9 H009        4.6469   46.1060   50.5777 H       1  UNL         0.0709
     10 C010        3.8968   45.8461   52.6185 C.3     1  UNL        -0.0070
     11 H011        4.0960   46.8394   53.0392 H       1  UNL         0.0338
     12 C012        2.4662   45.8837   52.0447 C.3     1  UNL        -0.0472
     13 H013        2.2628   44.9456   51.5237 H       1  UNL         0.0271
     14 H014        2.3804   46.6820   51.3118 H       1  UNL         0.0271
     15 C015        1.4055   46.0922   53.1374 C.3     1  UNL        -0.0529
     16 H016        0.4115   46.0697   52.6932 H       1  UNL         0.0267
     17 H017        1.5324   47.0772   53.5833 H       1  UNL         0.0267
     18 C018        1.5208   45.0118   54.2336 C.3     1  UNL        -0.0533
     19 H019        1.2898   44.0362   53.8107 H       1  UNL         0.0267
     20 H020        0.7874   45.2046   55.0120 H       1  UNL         0.0267
     21 C021        2.9303   45.0001   54.8396 C.3     1  UNL        -0.0529
     22 H022        3.0044   44.1981   55.5784 H       1  UNL         0.0267
     23 H023        3.1174   45.9283   55.3661 H       1  UNL         0.0267
     24 C024        3.9977   44.7944   53.7494 C.3     1  UNL        -0.0472
     25 H025        4.9940   44.8207   54.2014 H       1  UNL         0.0271
     26 H026        3.8868   43.7950   53.3347 H       1  UNL         0.0271
     27 N027        6.9186   44.4578   50.1158 N.ar    1  UNL        -0.1750
     28 C028        7.8924   43.8557   49.4325 C.ar    1  UNL         0.2321
     29 N029        7.4996   42.8176   48.6339 N.pl3   1  UNL        -0.3240
     30 H030        8.1911   42.4793   47.9762 H       1  UNL         0.1697
     31 C031        6.3368   42.0554   48.6146 C.ar    1  UNL         0.0411
     32 C032        5.8640   41.5849   47.3822 C.ar    1  UNL        -0.0348
     33 H033        6.3891   41.8014   46.4733 H       1  UNL         0.0646
     34 C034        4.6720   40.8519   47.3254 C.ar    1  UNL        -0.0179
     35 H035        4.3590   40.5478   46.3362 H       1  UNL         0.0663
     36 C036        3.9257   40.5861   48.4997 C.ar    1  UNL         0.1185
     37 O037        2.7181   39.9372   48.4690 O.3     1  UNL        -0.4968
     38 C038        2.4276   39.1691   47.3172 C.3     1  UNL         0.0775
     39 H039        1.5264   38.5452   47.4227 H       1  UNL         0.0669
     40 H040        2.2444   39.8112   46.4549 H       1  UNL         0.0669
     41 H041        3.2334   38.4740   47.1099 H       1  UNL         0.0669
     42 C042        4.4250   41.0186   49.7506 C.ar    1  UNL        -0.0179
     43 H043        3.8752   40.8182   50.6666 H       1  UNL         0.0663
     44 C044        5.6379   41.7399   49.8042 C.ar    1  UNL        -0.0348
     45 H045        6.0182   42.0704   50.7696 H       1  UNL         0.0646
     46 N046        9.2086   44.0483   49.4786 N.ar    1  UNL        -0.1927
     47 C047        9.5108   44.9594   50.4506 C.ar    1  UNL         0.1663
     48 N048       10.7361   45.3848   50.8746 N.ar    1  UNL        -0.3290
     49 H049       11.6544   45.1213   50.4916 H       1  UNL         0.1691
@<TRIPOS>BOND
    1     1     2  1
    2     2    48 ar
    3     2     3 ar
    4     3     4 ar
    5     4    47 ar
    6     4     5 ar
    7     5     6  1
    8     5    27 ar
    9     6     7  1
   10     7     8  1
   11     7     9  1
   12     7    10  1
   13    10    24  1
   14    10    11  1
   15    10    12  1
   16    12    13  1
   17    12    14  1
   18    12    15  1
   19    15    16  1
   20    15    17  1
   21    15    18  1
   22    18    19  1
   23    18    20  1
   24    18    21  1
   25    21    22  1
   26    21    23  1
   27    21    24  1
   28    24    25  1
   29    24    26  1
   30    27    28 ar
   31    28    29  1
   32    28    46 ar
   33    29    30  1
   34    29    31  1
   35    31    44 ar
   36    31    32 ar
   37    32    33  1
   38    32    34 ar
   39    34    35  1
   40    34    36 ar
   41    36    37  1
   42    36    42 ar
   43    37    38  1
   44    38    39  1
   45    38    40  1
   46    38    41  1
   47    42    43  1
   48    42    44 ar
   49    44    45  1
   50    46    47 ar
   51    47    48 ar
   52    48    49  1

