@<TRIPOS>MOLECULE
lig_21
49 52 0 0 0
SMALL
GASTEIGER

@<TRIPOS>ATOM
      1 H001       11.3172   46.8950   52.2199 H       1  UNL         0.1042
      2 C002       10.5050   46.3180   51.7889 C.ar    1  UNL         0.0946
      3 N003        9.2352   46.5368   52.1190 N.ar    1  UNL        -0.2294
      4 C004        8.5807   45.6510   51.2691 C.ar    1  UNL         0.1696
      5 C005        7.2220   45.3274   51.0726 C.ar    1  UNL         0.2468
      6 O006        6.2095   45.8788   51.8359 O.3     1  UNL        -0.4757
      7 C007        4.8777   45.5629   51.4649 C.3     1  UNL         0.0928
      8 H008        4.7270   44.5152   51.1935 H       1  UNL         0.0709
      9 H009        4.6526   46.1450   50.5689 H       1  UNL         0.0709
     10 C010        3.8864   45.8626   52.5974 C.3     1  UNL        -0.0070
     11 H011        4.0937   46.8508   53.0116 H       1  UNL         0.0338
     12 C012        2.4598   45.8985   52.0136 C.3     1  UNL        -0.0472
     13 H013        2.2648   44.9580   51.4890 H       1  UNL         0.0271
     14 H014        2.3843   46.6993   51.2683 H       1  UNL         0.0271
     15 C015        1.3962   46.1074   53.0986 C.3     1  UNL        -0.0529
     16 H016        0.4061   46.0924   52.6422 H       1  UNL         0.0267
     17 H017        1.5280   47.0917   53.5439 H       1  UNL         0.0267
     18 C018        1.4976   45.0308   54.1838 C.3     1  UNL        -0.0533
     19 H019        1.2724   44.0532   53.7600 H       1  UNL         0.0267
     20 H020        0.7538   45.2127   54.9589 H       1  UNL         0.0267
     21 C021        2.9080   45.0109   54.8031 C.3     1  UNL        -0.0529
     22 H022        2.9650   44.2123   55.5502 H       1  UNL         0.0267
     23 H023        3.0914   45.9429   55.3415 H       1  UNL         0.0267
     24 C024        3.9895   44.8140   53.7298 C.3     1  UNL        -0.0472
     25 H025        4.9746   44.8496   54.1936 H       1  UNL         0.0271
     26 H026        3.8803   43.8142   53.3085 H       1  UNL         0.0271
     27 N027        6.9119   44.4129   50.1169 N.ar    1  UNL        -0.1750
     28 C028        7.8825   43.8226   49.4218 C.ar    1  UNL         0.2321
     29 N029        7.4812   42.8000   48.6103 N.pl3   1  UNL        -0.3239
     30 H030        8.1933   42.4474   47.9828 H       1  UNL         0.1697
     31 C031        6.3095   42.0249   48.5916 C.ar    1  UNL         0.0446
     32 C032        5.6560   41.6800   49.7999 C.ar    1  UNL        -0.0383
     33 H033        6.0710   41.9852   50.7496 H       1  UNL         0.0645
     34 C034        4.4595   40.9401   49.7809 C.ar    1  UNL        -0.0565
     35 H035        3.9613   40.7004   50.7087 H       1  UNL         0.0625
     36 C036        3.9177   40.5249   48.5522 C.ar    1  UNL        -0.0198
     37 H037        2.9996   39.9601   48.5442 H       1  UNL         0.0662
     38 C038        4.5614   40.8296   47.3373 C.ar    1  UNL         0.1204
     39 O039        3.9493   40.3907   46.1823 O.3     1  UNL        -0.4967
     40 C040        4.5812   40.6658   44.9434 C.3     1  UNL         0.0775
     41 H041        3.9845   40.2622   44.1242 H       1  UNL         0.0669
     42 H042        4.6821   41.7358   44.7702 H       1  UNL         0.0669
     43 H043        5.5664   40.1999   44.8916 H       1  UNL         0.0669
     44 C044        5.7704   41.5752   47.3692 C.ar    1  UNL         0.0037
     45 H045        6.3016   41.8402   46.4696 H       1  UNL         0.0684
     46 N046        9.2033   44.0265   49.4805 N.ar    1  UNL        -0.1927
     47 C047        9.4955   44.9455   50.4434 C.ar    1  UNL         0.1663
     48 N048       10.7197   45.4110   50.8287 N.ar    1  UNL        -0.3290
     49 H049       11.6330   45.1975   50.4175 H       1  UNL         0.1691
@<TRIPOS>BOND
    1     1     2  1
    2     2    48 ar
    3     2     3 ar
    4     3     4 ar
    5     4    47 ar
    6     4     5 ar
    7     5     6  1
    8     5    27 ar
    9     6     7  1
   10     7     8  1
   11     7     9  1
   12     7    10  1
   13    10    24  1
   14    10    11  1
   15    10    12  1
   16    12    13  1
   17    12    14  1
   18    12    15  1
   19    15    16  1
   20    15    17  1
   21    15    18  1
   22    18    19  1
   23    18    20  1
   24    18    21  1
   25    21    22  1
   26    21    23  1
   27    21    24  1
   28    24    25  1
   29    24    26  1
   30    27    28 ar
   31    28    29  1
   32    28    46 ar
   33    29    30  1
   34    29    31  1
   35    31    44 ar
   36    31    32 ar
   37    32    33  1
   38    32    34 ar
   39    34    35  1
   40    34    36 ar
   41    36    37  1
   42    36    38 ar
   43    38    39  1
   44    38    44 ar
   45    39    40  1
   46    40    41  1
   47    40    42  1
   48    40    43  1
   49    44    45  1
   50    46    47 ar
   51    47    48 ar
   52    48    49  1

