@<TRIPOS>MOLECULE
lig_22
49 52 0 0 0
SMALL
GASTEIGER

@<TRIPOS>ATOM
      1 H001       11.3475   46.8371   52.2222 H       1  UNL         0.1042
      2 C002       10.5197   46.2989   51.7808 C.ar    1  UNL         0.0946
      3 N003        9.2509   46.5354   52.1306 N.ar    1  UNL        -0.2294
      4 C004        8.5878   45.6637   51.2657 C.ar    1  UNL         0.1696
      5 C005        7.2284   45.3327   51.0867 C.ar    1  UNL         0.2468
      6 O006        6.2322   45.8589   51.8705 O.3     1  UNL        -0.4757
      7 C007        4.8879   45.5813   51.4789 C.3     1  UNL         0.0928
      8 H008        4.7216   44.5459   51.1895 H       1  UNL         0.0709
      9 H009        4.6911   46.1956   50.5923 H       1  UNL         0.0709
     10 C010        3.8961   45.8736   52.6187 C.3     1  UNL        -0.0070
     11 H011        4.0983   46.8554   53.0491 H       1  UNL         0.0338
     12 C012        2.4690   45.9125   52.0491 C.3     1  UNL        -0.0472
     13 H013        2.2645   44.9836   51.5201 H       1  UNL         0.0271
     14 H014        2.3864   46.7181   51.3212 H       1  UNL         0.0271
     15 C015        1.4046   46.1066   53.1367 C.3     1  UNL        -0.0529
     16 H016        0.4110   46.0900   52.6955 H       1  UNL         0.0267
     17 H017        1.5286   47.0913   53.6032 H       1  UNL         0.0267
     18 C018        1.5168   45.0182   54.2221 C.3     1  UNL        -0.0533
     19 H019        1.2800   44.0471   53.7852 H       1  UNL         0.0267
     20 H020        0.7799   45.2022   55.0087 H       1  UNL         0.0267
     21 C021        2.9272   44.9897   54.8247 C.3     1  UNL        -0.0529
     22 H022        3.0011   44.1839   55.5590 H       1  UNL         0.0267
     23 H023        3.1168   45.9176   55.3682 H       1  UNL         0.0267
     24 C024        3.9995   44.8059   53.7390 C.3     1  UNL        -0.0472
     25 H025        4.9911   44.8276   54.1934 H       1  UNL         0.0271
     26 H026        3.8876   43.8129   53.3111 H       1  UNL         0.0271
     27 N027        6.9156   44.4213   50.1301 N.ar    1  UNL        -0.1750
     28 C028        7.8660   43.8383   49.4139 C.ar    1  UNL         0.2321
     29 N029        7.4407   42.8247   48.5931 N.pl3   1  UNL        -0.3240
     30 H030        8.1279   42.4956   47.9234 H       1  UNL         0.1697
     31 C031        6.2829   42.0364   48.5940 C.ar    1  UNL         0.0420
     32 C032        5.6606   41.6772   49.8140 C.ar    1  UNL        -0.0384
     33 H033        6.0971   41.9773   50.7558 H       1  UNL         0.0645
     34 C034        4.4652   40.9282   49.8218 C.ar    1  UNL        -0.0591
     35 H035        3.9940   40.6853   50.7657 H       1  UNL         0.0624
     36 C036        3.8900   40.5056   48.6096 C.ar    1  UNL        -0.0485
     37 H037        2.9647   39.9423   48.6313 H       1  UNL         0.0635
     38 C038        4.5183   40.8403   47.3842 C.ar    1  UNL         0.0090
     39 S039        3.7357   40.3203   45.8885 S.3     1  UNL        -0.1295
     40 C040        4.4689   41.2462   44.5106 C.3     1  UNL        -0.0136
     41 H041        3.9935   40.9495   43.5731 H       1  UNL         0.0348
     42 H042        4.3273   42.3205   44.6469 H       1  UNL         0.0348
     43 H043        5.5349   41.0376   44.4197 H       1  UNL         0.0348
     44 C044        5.7093   41.6026   47.3781 C.ar    1  UNL        -0.0249
     45 H045        6.1972   41.8584   46.4518 H       1  UNL         0.0657
     46 N046        9.1797   44.0475   49.4395 N.ar    1  UNL        -0.1927
     47 C047        9.4868   44.9647   50.4102 C.ar    1  UNL         0.1663
     48 N048       10.7206   45.4196   50.7970 N.ar    1  UNL        -0.3290
     49 H049       11.6331   45.2156   50.3662 H       1  UNL         0.1691
@<TRIPOS>BOND
    1     1     2  1
    2     2    48 ar
    3     2     3 ar
    4     3     4 ar
    5     4    47 ar
    6     4     5 ar
    7     5     6  1
    8     5    27 ar
    9     6     7  1
   10     7     8  1
   11     7     9  1
   12     7    10  1
   13    10    24  1
   14    10    11  1
   15    10    12  1
   16    12    13  1
   17    12    14  1
   18    12    15  1
   19    15    16  1
   20    15    17  1
   21    15    18  1
   22    18    19  1
   23    18    20  1
   24    18    21  1
   25    21    22  1
   26    21    23  1
   27    21    24  1
   28    24    25  1
   29    24    26  1
   30    27    28 ar
   31    28    29  1
   32    28    46 ar
   33    29    30  1
   34    29    31  1
   35    31    44 ar
   36    31    32 ar
   37    32    33  1
   38    32    34 ar
   39    34    35  1
   40    34    36 ar
   41    36    37  1
   42    36    38 ar
   43    38    39  1
   44    38    44 ar
   45    39    40  1
   46    40    41  1
   47    40    42  1
   48    40    43  1
   49    44    45  1
   50    46    47 ar
   51    47    48 ar
   52    48    49  1

