@<TRIPOS>MOLECULE
lig_1h1r
45 48 0 0 0
SMALL
GASTEIGER

@<TRIPOS>ATOM
      1 H001        3.9959   40.7294   50.7571 H       1  UNL         0.0624
      2 C002        4.4780   40.9597   49.8176 C.ar    1  UNL        -0.0587
      3 C003        5.6776   41.6920   49.8112 C.ar    1  UNL        -0.0384
      4 C004        6.3143   42.0298   48.5972 C.ar    1  UNL         0.0424
      5 C005        5.7612   41.5712   47.3857 C.ar    1  UNL        -0.0198
      6 C006        4.5617   40.8277   47.3884 C.ar    1  UNL         0.0426
      7 C007        3.9129   40.5322   48.6039 C.ar    1  UNL        -0.0434
      8 H008        2.9920   39.9722   48.6204 H       1  UNL         0.0638
      9 Cl009       3.8636   40.3091   45.9000 Cl      1  UNL        -0.0843
     10 H010        6.2479   41.8039   46.4515 H       1  UNL         0.0661
     11 N011        7.4813   42.8105   48.5927 N.pl3   1  UNL        -0.3240
     12 H012        8.2049   42.4806   47.9625 H       1  UNL         0.1697
     13 C013        7.8827   43.8437   49.3944 C.ar    1  UNL         0.2321
     14 N014        9.1982   44.0481   49.4416 N.ar    1  UNL        -0.1927
     15 C015        9.4932   44.9613   50.4112 C.ar    1  UNL         0.1663
     16 C016        8.5853   45.6632   51.2530 C.ar    1  UNL         0.1696
     17 C017        7.2272   45.3412   51.0558 C.ar    1  UNL         0.2468
     18 N018        6.9203   44.4372   50.0974 N.ar    1  UNL        -0.1750
     19 O019        6.2253   45.8630   51.8429 O.3     1  UNL        -0.4757
     20 C020        4.8867   45.5227   51.4821 C.3     1  UNL         0.0928
     21 H021        4.7604   44.4687   51.2244 H       1  UNL         0.0709
     22 H022        4.6431   46.0831   50.5782 H       1  UNL         0.0709
     23 C023        3.8979   45.8231   52.6172 C.3     1  UNL        -0.0070
     24 C024        2.4794   45.8843   52.0270 C.3     1  UNL        -0.0472
     25 C025        1.4120   46.0828   53.1083 C.3     1  UNL        -0.0529
     26 C026        1.4939   44.9822   54.1749 C.3     1  UNL        -0.0533
     27 C027        2.8960   44.9319   54.8027 C.3     1  UNL        -0.0529
     28 C028        3.9815   44.7468   53.7281 C.3     1  UNL        -0.0472
     29 H029        4.9664   44.7594   54.1972 H       1  UNL         0.0271
     30 H030        3.8703   43.7524   53.2920 H       1  UNL         0.0271
     31 H031        2.9468   44.1177   55.5278 H       1  UNL         0.0267
     32 H032        3.0843   45.8508   55.3596 H       1  UNL         0.0267
     33 H033        1.2580   44.0166   53.7244 H       1  UNL         0.0267
     34 H034        0.7470   45.1585   54.9487 H       1  UNL         0.0267
     35 H035        0.4240   46.0904   52.6483 H       1  UNL         0.0267
     36 H036        1.5436   47.0572   53.5784 H       1  UNL         0.0267
     37 H037        2.2751   44.9612   51.4813 H       1  UNL         0.0271
     38 H038        2.4204   46.6998   51.3038 H       1  UNL         0.0271
     39 H039        4.1170   46.8004   53.0512 H       1  UNL         0.0338
     40 N040        9.2443   46.5196   52.1287 N.ar    1  UNL        -0.2294
     41 C041       10.5125   46.3015   51.7887 C.ar    1  UNL         0.0946
     42 N042       10.7220   45.4058   50.8179 N.ar    1  UNL        -0.3290
     43 H043       11.6390   45.1746   50.4301 H       1  UNL         0.1691
     44 H044       11.3451   46.8353   52.2252 H       1  UNL         0.1042
     45 H045        6.1022   42.0101   50.7500 H       1  UNL         0.0645
@<TRIPOS>BOND
    1     1     2  1
    2     2     7 ar
    3     2     3 ar
    4     3     4 ar
    5     3    45  1
    6     4     5 ar
    7     4    11  1
    8     5     6 ar
    9     5    10  1
   10     6     7 ar
   11     6     9  1
   12     7     8  1
   13    11    12  1
   14    11    13  1
   15    13    18 ar
   16    13    14 ar
   17    14    15 ar
   18    15    42 ar
   19    15    16 ar
   20    16    17 ar
   21    16    40 ar
   22    17    18 ar
   23    17    19  1
   24    19    20  1
   25    20    21  1
   26    20    22  1
   27    20    23  1
   28    23    28  1
   29    23    24  1
   30    23    39  1
   31    24    25  1
   32    24    37  1
   33    24    38  1
   34    25    26  1
   35    25    35  1
   36    25    36  1
   37    26    27  1
   38    26    33  1
   39    26    34  1
   40    27    28  1
   41    27    31  1
   42    27    32  1
   43    28    29  1
   44    28    30  1
   45    40    41 ar
   46    41    42 ar
   47    41    44  1
   48    42    43  1

