@<TRIPOS>MOLECULE
lig_1oiy
49 52 0 0 0
SMALL
GASTEIGER

@<TRIPOS>ATOM
      1 H001       11.3554   46.9170   52.2323 H       1  UNL         0.1042
      2 C002       10.5443   46.3483   51.8074 C.ar    1  UNL         0.0946
      3 N003        9.2716   46.5493   52.1368 N.ar    1  UNL        -0.2294
      4 C004        8.6319   45.6753   51.2677 C.ar    1  UNL         0.1696
      5 C005        7.2762   45.3573   51.0500 C.ar    1  UNL         0.2468
      6 O006        6.2585   45.8789   51.8241 O.3     1  UNL        -0.4757
      7 C007        4.9238   45.5189   51.4750 C.3     1  UNL         0.0928
      8 H008        4.6577   46.0893   50.5838 H       1  UNL         0.0709
      9 H009        4.8288   44.4617   51.2230 H       1  UNL         0.0709
     10 C010        3.9300   45.8102   52.6088 C.3     1  UNL        -0.0070
     11 H011        4.1723   46.7813   53.0434 H       1  UNL         0.0338
     12 C012        2.5107   45.8812   52.0116 C.3     1  UNL        -0.0472
     13 H013        2.4554   46.6938   51.2859 H       1  UNL         0.0271
     14 H014        2.3023   44.9634   51.4584 H       1  UNL         0.0271
     15 C015        1.4345   46.0826   53.0835 C.3     1  UNL        -0.0529
     16 H016        1.5662   47.0588   53.5502 H       1  UNL         0.0267
     17 H017        0.4476   46.0895   52.6197 H       1  UNL         0.0267
     18 C018        1.5069   44.9867   54.1552 C.3     1  UNL        -0.0533
     19 H019        0.7536   45.1710   54.9227 H       1  UNL         0.0267
     20 H020        1.2658   44.0200   53.7102 H       1  UNL         0.0267
     21 C021        2.9054   44.9319   54.7902 C.3     1  UNL        -0.0529
     22 H022        3.0906   45.8507   55.3491 H       1  UNL         0.0267
     23 H023        2.9465   44.1196   55.5171 H       1  UNL         0.0267
     24 C024        3.9991   44.7377   53.7230 C.3     1  UNL        -0.0472
     25 H025        3.8884   43.7430   53.2879 H       1  UNL         0.0271
     26 H026        4.9790   44.7505   54.2010 H       1  UNL         0.0271
     27 N027        6.9941   44.4617   50.0755 N.ar    1  UNL        -0.1750
     28 C028        7.9786   43.8554   49.4034 C.ar    1  UNL         0.2321
     29 N029        7.5998   42.8266   48.5822 N.pl3   1  UNL        -0.3240
     30 H030        8.3174   42.4855   47.9524 H       1  UNL         0.1697
     31 C031        6.4495   42.0506   48.5733 C.ar    1  UNL         0.0409
     32 C032        5.8831   41.6264   47.3539 C.ar    1  UNL        -0.0377
     33 H033        6.3543   41.8813   46.4136 H       1  UNL         0.0645
     34 C034        4.6835   40.9227   47.3560 C.ar    1  UNL        -0.0474
     35 H035        4.2366   40.6513   46.4116 H       1  UNL         0.0632
     36 C036        4.0737   40.6315   48.5800 C.ar    1  UNL         0.0392
     37 C037        2.8401   40.0263   48.5922 C.2     1  UNL         0.2482
     38 O038        2.2804   40.4259   49.5663 O.2     1  UNL        -0.2696
     39 N039        2.4857   39.1806   47.6142 N.am    1  UNL        -0.3656
     40 H040        3.1315   39.0063   46.8541 H       1  UNL         0.1595
     41 H041        1.6164   38.6687   47.6651 H       1  UNL         0.1595
     42 C042        4.6525   41.0174   49.8104 C.ar    1  UNL        -0.0474
     43 H043        4.2073   40.8027   50.7735 H       1  UNL         0.0632
     44 C044        5.8521   41.7121   49.8009 C.ar    1  UNL        -0.0377
     45 H045        6.2936   42.0111   50.7409 H       1  UNL         0.0645
     46 N046        9.2917   44.0449   49.4858 N.ar    1  UNL        -0.1927
     47 C047        9.5602   44.9654   50.4530 C.ar    1  UNL         0.1663
     48 N048       10.7805   45.4261   50.8682 N.ar    1  UNL        -0.3290
     49 H049       11.6969   45.1925   50.4789 H       1  UNL         0.1691
@<TRIPOS>BOND
    1     1     2  1
    2     2    48 ar
    3     2     3 ar
    4     3     4 ar
    5     4    47 ar
    6     4     5 ar
    7     5     6  1
    8     5    27 ar
    9     6     7  1
   10     7     8  1
   11     7     9  1
   12     7    10  1
   13    10    24  1
   14    10    11  1
   15    10    12  1
   16    12    13  1
   17    12    14  1
   18    12    15  1
   19    15    16  1
   20    15    17  1
   21    15    18  1
   22    18    19  1
   23    18    20  1
   24    18    21  1
   25    21    22  1
   26    21    23  1
   27    21    24  1
   28    24    25  1
   29    24    26  1
   30    27    28 ar
   31    28    29  1
   32    28    46 ar
   33    29    30  1
   34    29    31  1
   35    31    44 ar
   36    31    32 ar
   37    32    33  1
   38    32    34 ar
   39    34    35  1
   40    34    36 ar
   41    36    37  1
   42    36    42 ar
   43    37    38  2
   44    37    39 am
   45    39    40  1
   46    39    41  1
   47    42    43  1
   48    42    44 ar
   49    44    45  1
   50    46    47 ar
   51    47    48 ar
   52    48    49  1

